version 2
run General-0-20240627-02:27:32-7162
attr configname General
attr datetime 20240627-02:27:32
attr experiment General
attr inifile omnetpp.ini
attr iterationvars ""
attr iterationvarsf ""
attr measurement ""
attr network HighWayScenario
attr processid 7162
attr repetition 0
attr replication #0
attr resultdir results
attr runnumber 0
attr seedset 0
param **.debug false
param **.coreDebug false
param *.playgroundSizeX 800m
param *.playgroundSizeY 800m
param *.playgroundSizeZ 50m
param *.annotations.draw true
param *.manager.updateInterval 0.1s
param *.manager.host "\"localhost\""
param *.manager.port 9999
param *.manager.autoShutdown false
param *.manager.launchConfig "xmldoc(\"HighWay.launchd.xml\")"
param *.connectionManager.sendDirect true
param *.connectionManager.maxInterfDist 420m
param *.connectionManager.drawMaxIntfDist true
param *.**.nic.mac1609_4.useServiceChannel false
param *.**.nic.mac1609_4.txPower 20mW
param *.**.nic.mac1609_4.bitrate 6Mbps
param *.**.nic.phy80211p.minPowerLevel -89dBm
param *.**.nic.phy80211p.useNoiseFloor true
param *.**.nic.phy80211p.noiseFloor -98dBm
param *.**.nic.phy80211p.decider "xmldoc(\"config.xml\")"
param *.**.nic.phy80211p.analogueModels "xmldoc(\"config.xml\")"
param *.**.nic.phy80211p.usePropagationDelay true
param *.**.nic.phy80211p.antenna "xmldoc(\"antenna.xml\", \"/root/Antenna[@id='monopole']\")"
param *.node[*].nic.phy80211p.antennaOffsetY "0 m"
param *.node[*].nic.phy80211p.antennaOffsetZ "1.895 m"
param *.node[*].applType "\"JosephVeinsApp\""
param *.node[*].appl.headerLength "80 bit"
param *.node[*].appl.sendBeacons true
param *.node[*].appl.dataOnSch false
param *.node[*].appl.beaconInterval 1s
param *.node[*].appl.serialNumber "\"HighWayScenario-ITSG5\""
param *.node[*].appl.savePath "\"../../../f2md-results/\""
param *.node[*].appl.UseAttacksServer false
param *.node[*].appl.MixLocalAttacks false
param *.node[*].appl.RandomLocalMix false
param *.node[*].appl.LOCAL_ATTACKER_PROB 0.0
param *.node[*].appl.LOCAL_ATTACK_TYPE 5
param *.node[*].appl.GLOBAL_ATTACKER_PROB 0.0
param *.node[*].appl.GLOBAL_ATTACK_TYPE 20
param *.node[*].appl.EnablePC false
param *.node[*].appl.PC_TYPE 5
param *.node[*].appl.EnableV1 true
param *.node[*].appl.EnableV2 true
param *.node[*].appl.SaveStatsV1 true
param *.node[*].appl.SaveStatsV2 true
param *.node[*].appl.checksVersionV1 2
param *.node[*].appl.checksVersionV2 2
param *.node[*].appl.appTypeV1 3
param *.node[*].appl.appTypeV2 2
param *.node[*].appl.appl.REPORT_VERSION 2
param *.node[*].appl.sendReportsV1 false
param *.node[*].appl.sendReportsV2 false
param *.node[*].appl.maHostV1 "\"localhost\""
param *.node[*].appl.maHostV2 "\"localhost\""
param *.node[*].appl.maPortV1 9980
param *.node[*].appl.maPortV2 9981
param *.node[*].appl.writeSelfMsg false
param *.node[*].appl.writeListSelfMsg false
param *.node[*].appl.writeBsmsV1 false
param *.node[*].appl.writeBsmsV2 false
param *.node[*].appl.writeListBsmsV1 false
param *.node[*].appl.writeListBsmsV2 false
param *.node[*].appl.writeReportsV1 false
param *.node[*].appl.writeReportsV2 false
param *.node[*].appl.writeListReportsV1 false
param *.node[*].appl.writeListReportsV2 false
param *.node[*].appl.writeVeReMi false
param *.node[*].appl.VeReMiSliceTime 3600
param *.node[*].appl.enableMTA true
param *.node[*].appl.veremiConf true
param *.node[*].appl.randomConf false
param *.node[*].appl.variableConf false
param *.node[*].appl.confPos 10.0
param *.node[*].appl.confSpd 0.05
param *.node[*].appl.confHea 20.0
param *.node[*].appl.confAcc 0.01
param *.node[*].appl.confPrec 100.0
param *.node[*].appl.minConf 0.20
param *.node[*].appl.SAVE_PERIOD 10
param *.node[*].appl.PRINT_PERIOD 60
param *.node[*].appl.START_SAVE 0
param *.node[*].appl.START_ATTACK 10
param *.node[*].appl.enableVarThreV1 false
param *.node[*].appl.enableVarThreV2 false
param *.node[*].appl.MAX_PROXIMITY_RANGE_L 30
param *.node[*].appl.MAX_PROXIMITY_RANGE_W 3
param *.node[*].appl.MAX_PROXIMITY_DISTANCE 2
param *.node[*].appl.MAX_CONFIDENCE_RANGE 10
param *.node[*].appl.MAX_PLAUSIBLE_RANGE 420
param *.node[*].appl.MAX_TIME_DELTA 3.1
param *.node[*].appl.MAX_DELTA_INTER 2.0
param *.node[*].appl.MAX_SA_RANGE 420
param *.node[*].appl.MAX_SA_TIME 2.1
param *.node[*].appl.MAX_KALMAN_TIME 3.1
param *.node[*].appl.KALMAN_POS_RANGE 1.0
param *.node[*].appl.KALMAN_SPEED_RANGE 4.0
param *.node[*].appl.KALMAN_MIN_POS_RANGE 4.0
param *.node[*].appl.KALMAN_MIN_SPEED_RANGE 1.0
param *.node[*].appl.MIN_MAX_SPEED 40
param *.node[*].appl.MIN_MAX_ACCEL 3
param *.node[*].appl.MIN_MAX_DECEL 4.5
param *.node[*].appl.MAX_MGT_RNG 4
param *.node[*].appl.MAX_MGT_RNG_DOWN 6.2
param *.node[*].appl.MAX_MGT_RNG_UP 2.1
param *.node[*].appl.MAX_BEACON_FREQUENCY 0.99
param *.node[*].appl.MAX_DISTANCE_FROM_ROUTE 2
param *.node[*].appl.MAX_NON_ROUTE_SPEED -1
param *.node[*].appl.MAX_HEADING_CHANGE 90
param *.node[*].appl.DELTA_BSM_TIME 5
param *.node[*].appl.DELTA_REPORT_TIME 5
param *.node[*].appl.POS_HEADING_TIME 1.1
param *.node[*].appl.MAX_TARGET_TIME 2
param *.node[*].appl.MAX_ACCUSED_TIME 2
param *.node[*].appl.parVar 0.55
param *.node[*].appl.RandomPosOffsetX 70.0
param *.node[*].appl.RandomPosOffsetY 70.0
param *.node[*].appl.RandomSpeedX 40.0
param *.node[*].appl.RandomSpeedY 40.0
param *.node[*].appl.RandomSpeedOffsetX 7.0
param *.node[*].appl.RandomSpeedOffsetY 7.0
param *.node[*].appl.RandomAccelX 2.0
param *.node[*].appl.RandomAccelY 2.0
param *.node[*].appl.StopProb 0.05
param *.node[*].appl.StaleMessages_Buffer 60
param *.node[*].appl.DosMultipleFreq 4
param *.node[*].appl.DosMultipleFreqSybil 2
param *.node[*].appl.ReplaySeqNum 6
param *.node[*].appl.SybilVehNumber 5
param *.node[*].appl.SelfSybil false
param *.node[*].appl.SybilDistanceX 5
param *.node[*].appl.SybilDistanceY 2
param *.node[*].appl.Period_Change_Time 240
param *.node[*].appl.Tolerance_Buffer 10
param *.node[*].appl.Period_Change_Distance 80
param *.node[*].appl.Random_Change_Chance 0.1
param *.node[*].appl.InitialHistory 5
param *.node[*].appl.CollectionPeriod 10
param *.node[*].appl.UntolerancePeriod 5
param *.node[*].veinsmobilityType.debug false
param *.node[*].veinsmobility.x 0
param *.node[*].veinsmobility.y 0
param *.node[*].veinsmobility.z 1.895
param *.node[*].veinsmobility.setHostSpeed true
param *.node[*].veinsmobility.setHostAcceleration true

vector 0 HighWayScenario.node[0].veinsmobility posx ETV
vector 1 HighWayScenario.node[0].veinsmobility posy ETV
vector 2 HighWayScenario.node[1].veinsmobility posx ETV
vector 3 HighWayScenario.node[1].veinsmobility posy ETV
vector 4 HighWayScenario.node[0].veinsmobility speed ETV
vector 5 HighWayScenario.node[1].veinsmobility speed ETV
vector 6 HighWayScenario.node[0].veinsmobility acceleration ETV
vector 7 HighWayScenario.node[0].veinsmobility co2emission ETV
vector 8 HighWayScenario.node[1].veinsmobility acceleration ETV
vector 9 HighWayScenario.node[1].veinsmobility co2emission ETV
vector 10 HighWayScenario.node[2].veinsmobility posx ETV
vector 11 HighWayScenario.node[2].veinsmobility posy ETV
vector 12 HighWayScenario.node[2].veinsmobility speed ETV
vector 13 HighWayScenario.node[2].veinsmobility acceleration ETV
vector 14 HighWayScenario.node[2].veinsmobility co2emission ETV
vector 15 HighWayScenario.node[3].veinsmobility posx ETV
vector 16 HighWayScenario.node[3].veinsmobility posy ETV
vector 17 HighWayScenario.node[4].veinsmobility posx ETV
vector 18 HighWayScenario.node[4].veinsmobility posy ETV
vector 19 HighWayScenario.node[3].veinsmobility speed ETV
vector 20 HighWayScenario.node[4].veinsmobility speed ETV
vector 21 HighWayScenario.node[3].veinsmobility acceleration ETV
vector 22 HighWayScenario.node[3].veinsmobility co2emission ETV
vector 23 HighWayScenario.node[4].veinsmobility acceleration ETV
vector 24 HighWayScenario.node[4].veinsmobility co2emission ETV
vector 25 HighWayScenario.node[5].veinsmobility posx ETV
vector 26 HighWayScenario.node[5].veinsmobility posy ETV
vector 27 HighWayScenario.node[5].veinsmobility speed ETV
vector 28 HighWayScenario.node[5].veinsmobility acceleration ETV
vector 29 HighWayScenario.node[5].veinsmobility co2emission ETV
vector 30 HighWayScenario.node[6].veinsmobility posx ETV
vector 31 HighWayScenario.node[6].veinsmobility posy ETV
vector 32 HighWayScenario.node[7].veinsmobility posx ETV
vector 33 HighWayScenario.node[7].veinsmobility posy ETV
vector 34 HighWayScenario.node[6].veinsmobility speed ETV
vector 35 HighWayScenario.node[7].veinsmobility speed ETV
vector 36 HighWayScenario.node[6].veinsmobility acceleration ETV
vector 37 HighWayScenario.node[6].veinsmobility co2emission ETV
vector 38 HighWayScenario.node[7].veinsmobility acceleration ETV
vector 39 HighWayScenario.node[7].veinsmobility co2emission ETV
vector 40 HighWayScenario.node[8].veinsmobility posx ETV
vector 41 HighWayScenario.node[8].veinsmobility posy ETV
vector 42 HighWayScenario.node[8].veinsmobility speed ETV
vector 43 HighWayScenario.node[8].veinsmobility acceleration ETV
vector 44 HighWayScenario.node[8].veinsmobility co2emission ETV
vector 45 HighWayScenario.node[9].veinsmobility posx ETV
vector 46 HighWayScenario.node[9].veinsmobility posy ETV
vector 47 HighWayScenario.node[10].veinsmobility posx ETV
vector 48 HighWayScenario.node[10].veinsmobility posy ETV
vector 49 HighWayScenario.node[9].veinsmobility speed ETV
vector 50 HighWayScenario.node[10].veinsmobility speed ETV
vector 51 HighWayScenario.node[9].veinsmobility acceleration ETV
vector 52 HighWayScenario.node[9].veinsmobility co2emission ETV
vector 53 HighWayScenario.node[10].veinsmobility acceleration ETV
vector 54 HighWayScenario.node[10].veinsmobility co2emission ETV
vector 55 HighWayScenario.node[11].veinsmobility posx ETV
vector 56 HighWayScenario.node[11].veinsmobility posy ETV
vector 57 HighWayScenario.node[11].veinsmobility speed ETV
vector 58 HighWayScenario.node[11].veinsmobility acceleration ETV
vector 59 HighWayScenario.node[11].veinsmobility co2emission ETV
14	121	3	1.4559637635989
14	122	3.1	1.6322704972042
14	123	3.2	1.6769308754033
14	124	3.3	1.7813050573864
14	125	3.4	1.8403744632881
14	126	3.5	1.8668581076722
14	127	3.6	1.9893545618308
14	149	3.7	2.2232847611635
14	192	3.8	2.1098124167368
14	193	3.9	2.6466955365922
14	194	4	2.3326302632192
14	195	4.1	2.8856305583032
14	196	4.2	2.2310852529537
14	197	4.3	2.7209843609098
14	198	4.4	2.9395024044345
14	199	4.5	3.2313923769884
14	200	4.6	2.7297513646557
14	222	4.7	3.2096330690884
14	265	4.8	3.1644334906811
14	266	4.9	4.047964900234
14	267	5	3.313638992014
14	268	5.1	3.4097939942937
14	269	5.2	3.4903538890874
14	270	5.3	3.0395804133406
14	271	5.4	3.5349044252683
14	272	5.5	4.184501096187
14	273	5.6	4.2001785108334
14	295	5.7	3.2220076082445
14	338	5.8	3.7995255054515
14	339	5.9	3.4587428272973
14	340	6	5.4141431594203
14	341	6.1	5.3170060748781
14	342	6.2	5.0882785982323
14	376	6.3	3.6511443388466
14	377	6.4	5.6584553683726
14	378	6.5	5.5987088607147
14	379	6.6	6.096416777456
14	413	6.7	5.4849190348659
14	480	6.8	6.1526437409583
14	481	6.9	5.7607744202075
14	482	7	5.9971091639738
14	516	7.1	5.2152493913441
14	517	7.2	6.0783234535385
14	551	7.3	4.630923286552
14	552	7.4	5.8556017776419
14	553	7.5	5.031028886169
14	554	7.6	6.4036207845387
14	588	7.7	6.854031793027
14	655	7.8	5.7942559604786
14	656	7.9	6.3999503230666
14	657	8	7.5694644071988
14	691	8.1	6.904959922078
14	692	8.2	5.5233167066052
14	726	8.3	7.8545892884246
14	727	8.4	8.7299895036615
14	728	8.5	7.0479478415095
14	729	8.6	6.6473980515037
14	763	8.7	5.8223906460045
14	842	8.8	7.7698382819527
14	843	8.9	7.7351415312663
14	844	9	7.4502331283234
14	884	9.1	8.0638902683917
14	885	9.2	9.3679254582237
14	964	9.3	6.2275755457478
14	965	9.4	9.3821665187718
14	966	9.5	7.0664620979276
14	967	9.6	7.0470524763665
14	1007	9.7	7.4885395700119
14	1086	9.8	6.4673721190233
14	1087	9.9	7.2556457890116
14	1088	10	9.5292703237828
14	1128	10.1	10.681224066998
14	1129	10.2	8.0651681127122
14	1208	10.3	8.97013810456
14	1209	10.4	7.3811972226262
14	1210	10.5	7.5030383652289
14	1211	10.6	7.429330344542
14	1251	10.7	7.8139681936976
14	1330	10.8	11.569650728682
14	1331	10.9	8.0050695971317
14	1332	11	12.092256597376
14	1372	11.1	11.067521833279
14	1373	11.2	11.75781735364
14	1452	11.3	12.513121321852
14	1453	11.4	9.4052670595722
14	1454	11.5	9.9192472672812
14	1455	11.6	9.5931567245329
14	1495	11.7	11.1271896576
14	1574	11.8	12.462288491582
14	1575	11.9	12.101444337632
14	1576	12	5.6451051226895
14	1616	12.1	0.973
14	1668	12.2	4.5944074760767
14	1771	12.3	4.6496998291713
14	1772	12.4	0.973
14	1824	12.5	2.2998063212415
14	1825	12.6	4.5495769043049
14	1877	12.7	1.679171043119
14	1980	12.8	3.7743470660317
14	1981	12.9	3.3542323715046
14	1982	13	0.973
14	2034	13.1	4.6177572729378
14	2086	13.2	0.973
14	2189	13.3	6.931726908633
14	2190	13.4	0.973
14	2242	13.5	5.0020411400366
14	2243	13.6	0.973
14	2295	13.7	2.536733506089
14	2398	13.8	5.9528679106857
14	2399	13.9	0.90359280532521
14	2400	14	2.6107196066759
14	2452	14.1	2.2364501716051
14	2504	14.2	0.973
14	2607	14.3	6.4275252762171
14	2608	14.4	2.6816273109811
14	2660	14.5	0.80855513087909
14	2661	14.6	0.973
14	2713	14.7	5.0755924259544
14	2828	14.8	2.2403421186615
14	2829	14.9	1.2421840434046
14	2830	15	6.5760841254126
14	2888	15.1	1.9815008435948
14	2946	15.2	0.973
14	3061	15.3	6.8162322651243
14	3062	15.4	0.973
14	3120	15.5	4.4304308598437
14	3121	15.6	3.0307400139524
14	3236	15.7	0.973
14	3351	15.8	5.4041589513506
14	3352	15.9	1.6039205200736
14	3353	16	1.8662477443894
14	3411	16.1	4.147598688002
14	3469	16.2	1.3288825355887
14	3584	16.3	2.1305291440215
14	3585	16.4	5.3968516386407
14	3643	16.5	0.973
14	3644	16.6	2.7437873632101
14	3759	16.7	4.1634114091159
14	3874	16.8	0.973
14	3875	16.9	4.7983324158499
14	3876	17	0.973
14	3934	17.1	1.7809740940085
14	3992	17.2	3.7281449249548
14	4107	17.3	5.8392470908062
14	4108	17.4	0.973
14	4166	17.5	5.8529223515427
14	4167	17.6	2.2127326743636
14	4282	17.7	0.973
14	4397	17.8	3.5695887596129
14	4398	17.9	1.3869456567505
14	4399	18	5.0209902980299
14	4457	18.1	4.3080770283083
14	4515	18.2	0.973
14	4630	18.3	9.5440380804979
14	4631	18.4	13.990022887965
14	4689	18.5	9.3711288173808
14	4690	18.6	8.469601481596
14	4805	18.7	11.660991723697
14	4920	18.8	9.0101051357233
14	4921	18.9	11.922286523286
14	4922	19	10.259240345631
14	4980	19.1	13.741650024568
14	5038	19.2	10.74902135541
14	5153	19.3	14.259816391942
14	5154	19.4	4.1606356571929
14	5212	19.5	0.973
14	5213	19.6	0.61499500640047
14	5328	19.7	6.7477998538499
14	5443	19.8	0.973
14	5444	19.9	6.6233137369236
14	5445	20	0.60473454984495
14	5503	20.1	3.8587073848093
14	5573	20.2	5.3213801322747
14	5712	20.3	1.1139042313546
14	5782	20.4	0.973
14	5921	20.5	5.1869195299014
14	5922	20.6	0.80302009364199
14	6061	20.7	4.8024240845102
14	6200	20.8	5.126629936255
14	6201	20.9	2.7965168668454
14	6202	21	0.973
14	6272	21.1	2.5931892770801
14	6342	21.2	4.1697246151795
14	6481	21.3	2.0497674705548
14	6551	21.4	5.160015812673
14	6690	21.5	0.973
14	6691	21.6	1.8093092128103
14	6830	21.7	7.073287159888
14	6969	21.8	1.8532830965199
14	6970	21.9	0.973
14	6971	22	4.9628789348738
14	7041	22.1	4.1300157195883
14	7111	22.2	2.2872969283373
14	7250	22.3	3.4671630333474
14	7320	22.4	0.973
14	7459	22.5	6.5747650505168
14	7460	22.6	2.5088508122389
14	7599	22.7	3.3235280242722
14	7750	22.8	4.785995011929
14	7751	22.9	2.3888058781469
14	7752	23	1.7736232425421
14	7828	23.1	0.973
14	7904	23.2	7.3842114439885
14	8055	23.3	1.9938853126859
14	8131	23.4	0.973
14	8282	23.5	6.0371444150665
14	8358	23.6	0.973
14	8509	23.7	5.5523060069126
14	8660	23.8	2.7278402542832
14	8661	23.9	1.6381222914768
14	8662	24	5.2165252963786
14	8738	24.1	0.973
14	8814	24.2	6.2169763479618
14	8965	24.3	0.973
14	9041	24.4	5.3676845505001
14	9192	24.5	2.448430970256
14	9268	24.6	1.1206311623322
14	9419	24.7	1.1338217786877
14	9570	24.8	3.016358023189
14	9571	24.9	2.3850789694175
14	9572	25	6.5503822058966
14	9648	25.1	0.94662679451062
14	9724	25.2	2.8136633006028
14	9875	25.3	0.973
14	9951	25.4	3.0969412305471
14	10102	25.5	3.940767117007
14	10178	25.6	4.1196720994867
14	10329	25.7	0.81558044649093
14	10480	25.8	5.2312719594716
14	10481	25.9	1.7031605535934
14	10482	26	0.973
14	10558	26.1	8.0237132494546
14	10634	26.2	1.3820263671668
14	10785	26.3	0.973
14	10861	26.4	5.3777822287262
14	11012	26.5	5.3023751635385
14	11088	26.6	2.1967479667294
14	11239	26.7	0.973
14	11390	26.8	2.7427096539167
14	11391	26.9	3.7911645075399
14	11392	27	1.8129021213844
14	11468	27.1	3.971364414077
14	11544	27.2	3.6739752086955
14	11695	27.3	1.1498286180058
14	11771	27.4	5.1322769402053
14	11922	27.5	1.6563281163414
14	11998	27.6	2.2360711659508
14	12149	27.7	3.3638412435511
14	12300	27.8	2.324573772876
14	12301	27.9	3.5387645832421
14	12302	28	0.95912863324047
14	12378	28.1	5.9494497258626
14	12454	28.2	1.5525472240062
14	12605	28.3	6.4253095762876
14	12681	28.4	1.1497933753673
14	12832	28.5	0.92314261471729
14	12908	28.6	4.2518368525996
14	13059	28.7	3.419839127767
14	13210	28.8	0.973
14	13211	28.9	5.4508082412197
14	13212	29	1.6793556673669
14	13288	29.1	2.7506811877485
14	13364	29.2	5.4104527242068
14	13515	29.3	0.973
14	13591	29.4	4.7697275251335
14	13742	29.5	5.096987535344
14	13818	29.6	0.973
14	13969	29.7	2.882388706783
14	14120	29.8	3.5864557636937
14	14121	29.9	2.4916750291649
14	14122	30	2.6871097385885
14	14198	30.1	0.973
14	14274	30.2	7.0113651186294
13	121	3	2.5773866133804
13	122	3.1	2.5921470201968
13	123	3.2	2.1686904759924
13	124	3.3	2.1125241112164
13	125	3.4	1.9630852700609
13	126	3.5	1.787521751738
13	127	3.6	1.865088967569
13	149	3.7	2.1325857928732
13	192	3.8	1.7262055759727
13	193	3.9	2.4573846945596
13	194	4	1.7681026779115
13	195	4.1	2.413640728849
13	196	4.2	1.3719304058002
13	197	4.3	1.9215971733676
13	198	4.4	2.0609394765459
13	199	4.5	2.2560777051607
13	200	4.6	1.5934962075437
13	222	4.7	2.0070045632543
13	265	4.8	1.8610358671751
13	266	4.9	2.5755732625723
13	267	5	1.7970738488948
13	268	5.1	1.8042755607981
13	269	5.2	1.7979858017527
13	270	5.3	1.3731275021331
13	271	5.4	1.7136336127995
13	272	5.5	2.1326397273224
13	273	5.6	2.0578714020317
13	295	5.7	1.3036597494269
13	338	5.8	1.6635781639256
13	339	5.9	1.3876754304394
13	340	6	2.5998513045954
13	341	6.1	2.433438217896
13	342	6.2	2.2069676619256
13	376	6.3	1.3012473299866
13	377	6.4	2.4092173396843
13	378	6.5	2.2930843308568
13	379	6.6	2.4799598257989
13	413	6.7	2.0844450560166
13	480	6.8	2.3578617253341
13	481	6.9	2.0957160377177
13	482	7	2.1507710573962
13	516	7.1	1.7293301475234
13	517	7.2	2.0842022907454
13	551	7.3	1.383799205604
13	552	7.4	1.8995382485446
13	553	7.5	1.4997958063148
13	554	7.6	2.0550471252296
13	588	7.7	2.1927444331115
13	655	7.8	1.7092146491166
13	656	7.9	1.918087388482
13	657	8	2.3342120763147
13	691	8.1	2.0235112381168
13	692	8.2	1.4584473318886
13	726	8.3	2.3015496139415
13	727	8.4	2.5643961252412
13	728	8.5	1.9052619206253
13	729	8.6	1.7283922401723
13	763	8.7	1.4118493708782
13	842	8.8	2.0575037543895
13	843	8.9	2.0056337480666
13	844	9	1.873703224468
13	884	9.1	2.0400918588741
13	885	9.2	2.4174969819607
13	964	9.3	1.3791338665876
13	965	9.4	2.3424680717289
13	966	9.5	1.5880939938594
13	967	9.6	1.5590320637217
13	1007	9.7	1.6692383358954
13	1086	9.8	1.341259956616
13	1087	9.9	1.5564152457984
13	1088	10	2.1925485599088
13	1128	10.1	2.479358946695
13	1129	10.2	1.6999805979896
13	1208	10.3	1.926401687297
13	1209	10.4	1.4606941100908
13	1210	10.5	1.4754736810923
13	1211	10.6	1.4370113370009
13	1251	10.7	1.5221090161009
13	1330	10.8	2.4894425308332
13	1331	10.9	1.5215156259015
13	1332	11	2.5492287805071
13	1372	11.1	2.2450350294123
13	1373	11.2	2.3792204505997
13	1452	11.3	2.5229838437867
13	1453	11.4	1.7283135464415
13	1454	11.5	1.8290148281725
13	1455	11.6	1.7268496808131
13	1495	11.7	2.0646757573588
13	1574	11.8	2.3431838384131
13	1575	11.9	2.2234814630821
13	1576	12	0.72240586104925
13	1616	12.1	-0.83355264149141
13	1668	12.2	0.48200831566938
13	1771	12.3	0.4918777955929
13	1772	12.4	-0.76681627526416
13	1824	12.5	-0.047587463771919
13	1825	12.6	0.47078255403321
13	1877	12.7	-0.19193096284287
13	1980	12.8	0.29121293795761
13	1981	12.9	0.19338848642072
13	1982	13	-0.5146366557339
13	2034	13.1	0.48498614558483
13	2086	13.2	-1.0493572860723
13	2189	13.3	1.0190436068224
13	2190	13.4	-0.52690158202314
13	2242	13.5	0.57352929101324
13	2243	13.6	-1.0832098277518
13	2295	13.7	0.0083368408959217
13	2398	13.8	0.79497374962084
13	2399	13.9	-0.37109671684448
13	2400	14	0.024020223878338
13	2452	14.1	-0.062434176728132
13	2504	14.2	-0.4453765426064
13	2607	14.3	0.90422368063592
13	2608	14.4	0.038952627917759
13	2660	14.5	-0.39316299285275
13	2661	14.6	-0.54143653293142
13	2713	14.7	0.59394210213796
13	2828	14.8	-0.061803189455532
13	2829	14.9	-0.29234997837339
13	2830	15	0.93618119682652
13	2888	15.1	-0.12300651378464
13	2946	15.2	-0.84816869667264
13	3061	15.3	0.9913828848628
13	3062	15.4	-1.1093213450163
13	3120	15.5	0.44503846406005
13	3121	15.6	0.12065041125751
13	3236	15.7	-0.57740239128471
13	3351	15.8	0.6689169803867
13	3352	15.9	-0.20909245435611
13	3353	16	-0.14803643855267
13	3411	16.1	0.37834921116009
13	3469	16.2	-0.27267180026975
13	3584	16.3	-0.086876291502271
13	3585	16.4	0.66497807721607
13	3643	16.5	-0.73305662148631
13	3644	16.6	0.055191751965324
13	3759	16.7	0.3819533952279
13	3874	16.8	-0.5320821550675
13	3875	16.9	0.5287117424421
13	3876	17	-0.51513362333644
13	3934	17.1	-0.16711952236946
13	3992	17.2	0.28327042986639
13	4107	17.3	0.76654433347287
13	4108	17.4	-1.1384064235026
13	4166	17.5	0.77243256561925
13	4167	17.6	-0.068674373161066
13	4282	17.7	-0.46121824197471
13	4397	17.8	0.246012752736
13	4398	17.9	-0.25877755174879
13	4399	18	0.57992251359391
13	4457	18.1	0.41292797862553
13	4515	18.2	-0.45274029446301
13	4630	18.3	1.6060296583688
13	4631	18.4	2.579432386905
13	4689	18.5	1.518799633719
13	4690	18.6	1.3034802929731
13	4805	18.7	1.9857824461767
13	4920	18.8	1.3876258956734
13	4921	18.9	1.9963950402104
13	4922	19	1.6178980326047
13	4980	19.1	2.3288611992495
13	5038	19.2	1.6750178160845
13	5153	19.3	2.3760381359374
13	5154	19.4	0.27853051820248
13	5212	19.5	-0.62867907823531
13	5213	19.6	-0.45528297398704
13	5328	19.7	0.81675033317879
13	5443	19.8	-0.79335415884852
13	5444	19.9	0.7909308753209
13	5445	20	-0.45777776229659
13	5503	20.1	0.2181825485313
13	5573	20.2	0.51906302266289
13	5712	20.3	-0.35244652512482
13	5782	20.4	-0.67254874645734
13	5921	20.5	0.49425397790039
13	5922	20.6	-0.41627536064478
13	6061	20.7	0.41436099905983
13	6200	20.8	0.4790041289991
13	6201	20.9	-0.0040567769901756
13	6202	21	-0.78894172457513
13	6272	21.1	-0.043651716038582
13	6342	21.2	0.28322734944521
13	6481	21.3	-0.15710222935304
13	6551	21.4	0.48720598770306
13	6690	21.5	-0.62901738500223
13	6691	21.6	-0.20634486270136
13	6830	21.7	0.88392947551331
13	6969	21.8	-0.19875867990777
13	6970	21.9	-0.82913839931134
13	6971	22	0.44922769314141
13	7041	22.1	0.27462329643313
13	7111	22.2	-0.10802370205056
13	7250	22.3	0.13675804331434
13	7320	22.4	-0.72112841713242
13	7459	22.5	0.78203220858704
13	7460	22.6	-0.062360675772659
13	7599	22.7	0.10651011611333
13	7750	22.8	0.40804771028927
13	7751	22.9	-0.08852302115411
13	7752	23	-0.21559866368772
13	7828	23.1	-0.79973914641887
13	7904	23.2	0.94778888835574
13	8055	23.3	-0.16982595773882
13	8131	23.4	-0.56355948785786
13	8282	23.5	0.66881682847164
13	8358	23.6	-0.67060016267934
13	8509	23.7	0.56884707910939
13	8660	23.8	-0.017419130774208
13	8661	23.9	-0.24314417631832
13	8662	24	0.49776926520281
13	8738	24.1	-0.65076245656236
13	8814	24.2	0.70483466663863
13	8965	24.3	-0.65105958222411
13	9041	24.4	0.52951201128309
13	9192	24.5	-0.075751422741455
13	9268	24.6	-0.35071468765384
13	9419	24.7	-0.34743307856843
13	9570	24.8	0.044385400763716
13	9571	24.9	-0.086779713933325
13	9572	25	0.77511177100238
13	9648	25.1	-0.38688000324182
13	9724	25.2	0.0011899821460304
13	9875	25.3	-0.5275389119517
13	9951	25.4	0.061748430132873
13	10102	25.5	0.23649071808904
13	10178	25.6	0.2724483266007
13	10329	25.7	-0.41366744362747
13	10480	25.8	0.50292986652348
13	10481	25.9	-0.22942443210631
13	10482	26	-0.51667490084657
13	10558	26.1	1.0800574329915
13	10634	26.2	-0.29668974829836
13	10785	26.3	-0.6666557095712
13	10861	26.4	0.53393242752644
13	11012	26.5	0.51522954984101
13	11088	26.6	-0.1281669201795
13	11239	26.7	-1.1057597791776
13	11390	26.8	-0.011316923657425
13	11391	26.9	0.20647328672933
13	11392	27	-0.20525748599322
13	11468	27.1	0.24384571190456
13	11544	27.2	0.18113105357624
13	11695	27.3	-0.34368687772655
13	11771	27.4	0.4838486647699
13	11922	27.5	-0.23860040048604
13	11998	27.6	-0.11755943538155
13	12149	27.7	0.11696653491818
13	12300	27.8	-0.099168970203039
13	12301	27.9	0.15317233242094
13	12302	28	-0.3833305240143
13	12378	28.1	0.65325249885209
13	12454	28.2	-0.26033662653063
13	12605	28.3	0.74873711417897
13	12681	28.4	-0.34481233367696
13	12832	28.5	-0.39137623563875
13	12908	28.6	0.30007105770053
13	13059	28.7	0.12664740958716
13	13210	28.8	-0.76792695045004
13	13211	28.9	0.54982300999107
13	13212	29	-0.23391190646215
13	13288	29.1	-0.010845120251162
13	13364	29.2	0.53966045971027
13	13515	29.3	-0.52426807857117
13	13591	29.4	0.40724984291007
13	13742	29.5	0.47255969026594
13	13818	29.6	-0.74480875758454
13	13969	29.7	0.016013422957606
13	14120	29.8	0.16180873010306
13	14121	29.9	-0.065548909339093
13	14122	30	-0.024835282261506
13	14198	30.1	-0.51894481196069
13	14274	30.2	0.87167111465241
12	120	2.9	0.25907653123676
12	121	3	0.5168151925748
12	122	3.1	0.77602989459449
12	123	3.2	0.99289894219373
12	124	3.3	1.2041513533154
12	125	3.4	1.4004598803215
12	126	3.5	1.5792120554953
12	127	3.6	1.7657209522522
12	149	3.7	1.9789795315395
12	192	3.8	2.1516000891367
12	193	3.9	2.3973385585927
12	194	4	2.5741488263839
12	195	4.1	2.8155128992687
12	196	4.2	2.9527059398488
12	197	4.3	3.1448656571855
12	198	4.4	3.3509596048401
12	199	4.5	3.5765673753562
12	200	4.6	3.7359169961106
12	222	4.7	3.936617452436
12	265	4.8	4.1227210391535
12	266	4.9	4.3802783654107
12	267	5	4.5599857503002
12	268	5.1	4.74041330638
12	269	5.2	4.9202118865553
12	270	5.3	5.0575246367686
12	271	5.4	5.2288879980485
12	272	5.5	5.4421519707808
12	273	5.6	5.647939110984
12	295	5.7	5.7783050859266
12	338	5.8	5.9446629023192
12	339	5.9	6.0834304453631
12	340	6	6.3434155758227
12	341	6.1	6.5867593976123
12	342	6.2	6.8074561638048
12	376	6.3	6.9375808968035
12	377	6.4	7.1785026307719
12	378	6.5	7.4078110638576
12	379	6.6	7.6558070464375
12	413	6.7	7.8642515520392
12	480	6.8	8.1000377245726
12	481	6.9	8.3096093283443
12	482	7	8.5246864340839
12	516	7.1	8.6976194488363
12	517	7.2	8.9060396779108
12	551	7.3	9.0444195984712
12	552	7.4	9.2343734233257
12	553	7.5	9.3843530039572
12	554	7.6	9.5898577164801
12	588	7.7	9.8091321597913
12	655	7.8	9.9800536247029
12	656	7.9	10.171862363551
12	657	8	10.405283571183
12	691	8.1	10.607634694994
12	692	8.2	10.753479428183
12	726	8.3	10.983634389577
12	727	8.4	11.240074002101
12	728	8.5	11.430600194164
12	729	8.6	11.603439418181
12	763	8.7	11.744624355269
12	842	8.8	11.950374730708
12	843	8.9	12.150938105515
12	844	9	12.338308427961
12	884	9.1	12.542317613849
12	885	9.2	12.784067312045
12	964	9.3	12.921980698704
12	965	9.4	13.156227505877
12	966	9.5	13.315036905262
12	967	9.6	13.470940111635
12	1007	9.7	13.637863945224
12	1086	9.8	13.771989940886
12	1087	9.9	13.927631465466
12	1088	10	14.146886321456
12	1128	10.1	14.394822216126
12	1129	10.2	14.564820275925
12	1208	10.3	14.757460444655
12	1209	10.4	14.903529855664
12	1210	10.5	15.051077223773
12	1211	10.6	15.194778357473
12	1251	10.7	15.346989259083
12	1330	10.8	15.595933512166
12	1331	10.9	15.748085074757
12	1332	11	16.003007952807
12	1372	11.1	16.227511455749
12	1373	11.2	16.465433500809
12	1452	11.3	16.717731885187
12	1453	11.4	16.890563239831
12	1454	11.5	17.073464722649
12	1455	11.6	17.24614969073
12	1495	11.7	17.452617266466
12	1574	11.8	17.686935650307
12	1575	11.9	17.909283796615
12	1576	12	17.98152438272
12	1616	12.1	17.898169118571
12	1668	12.2	17.946369950138
12	1771	12.3	17.995557729697
12	1772	12.4	17.918876102171
12	1824	12.5	17.914117355794
12	1825	12.6	17.961195611197
12	1877	12.7	17.942002514913
12	1980	12.8	17.971123808709
12	1981	12.9	17.990462657351
12	1982	13	17.938998991777
12	2034	13.1	17.987497606336
12	2086	13.2	17.882561877728
12	2189	13.3	17.984466238411
12	2190	13.4	17.931776080208
12	2242	13.5	17.98912900931
12	2243	13.6	17.880808026535
12	2295	13.7	17.881641710624
12	2398	13.8	17.961139085586
12	2399	13.9	17.924029413902
12	2400	14	17.92643143629
12	2452	14.1	17.920188018617
12	2504	14.2	17.875650364356
12	2607	14.3	17.96607273242
12	2608	14.4	17.969967995211
12	2660	14.5	17.930651695926
12	2661	14.6	17.876508042633
12	2713	14.7	17.935902252847
12	2828	14.8	17.929721933901
12	2829	14.9	17.900486936064
12	2830	15	17.994105055747
12	2888	15.1	17.981804404368
12	2946	15.2	17.896987534701
12	3061	15.3	17.996125823187
12	3062	15.4	17.885193688686
12	3120	15.5	17.929697535092
12	3121	15.6	17.941762576217
12	3236	15.7	17.884022337089
12	3351	15.8	17.950914035127
12	3352	15.9	17.930004789692
12	3353	16	17.915201145837
12	3411	16.1	17.953036066953
12	3469	16.2	17.925768886926
12	3584	16.3	17.917081257775
12	3585	16.4	17.983579065497
12	3643	16.5	17.910273403348
12	3644	16.6	17.915792578545
12	3759	16.7	17.953987918068
12	3874	16.8	17.900779702561
12	3875	16.9	17.953650876805
12	3876	17	17.902137514472
12	3934	17.1	17.885425562235
12	3992	17.2	17.913752605221
12	4107	17.3	17.990407038569
12	4108	17.4	17.876566396218
12	4166	17.5	17.95380965278
12	4167	17.6	17.946942215464
12	4282	17.7	17.900820391267
12	4397	17.8	17.92542166654
12	4398	17.9	17.899543911365
12	4399	18	17.957536162725
12	4457	18.1	17.998828960587
12	4515	18.2	17.953554931141
12	4630	18.3	18.114157896978
12	4631	18.4	18.372101135668
12	4689	18.5	18.52398109904
12	4690	18.6	18.654329128338
12	4805	18.7	18.852907372955
12	4920	18.8	18.991669962523
12	4921	18.9	19.191309466544
12	4922	19	19.353099269804
12	4980	19.1	19.585985389729
12	5038	19.2	19.753487171337
12	5153	19.3	19.991090984931
12	5154	19.4	20.018944036751
12	5212	19.5	19.956076128928
12	5213	19.6	19.910547831529
12	5328	19.7	19.992222864847
12	5443	19.8	19.912887448962
12	5444	19.9	19.991980536494
12	5445	20	19.946202760265
12	5503	20.1	19.968021015118
12	5573	20.2	20.019927317384
12	5712	20.3	19.984682664872
12	5782	20.4	19.917427790226
12	5921	20.5	19.966853188016
12	5922	20.6	19.925225651951
12	6061	20.7	19.966661751857
12	6200	20.8	20.014562164757
12	6201	20.9	20.014156487058
12	6202	21	19.935262314601
12	6272	21.1	19.930897142997
12	6342	21.2	19.959219877941
12	6481	21.3	19.943509655006
12	6551	21.4	19.992230253776
12	6690	21.5	19.929328515276
12	6691	21.6	19.908694029006
12	6830	21.7	19.997086976557
12	6969	21.8	19.977211108567
12	6970	21.9	19.894297268636
12	6971	22	19.93922003795
12	7041	22.1	19.966682367593
12	7111	22.2	19.955879997388
12	7250	22.3	19.969555801719
12	7320	22.4	19.897442960006
12	7459	22.5	19.975646180865
12	7460	22.6	19.969410113288
12	7599	22.7	19.980061124899
12	7750	22.8	20.020865895928
12	7751	22.9	20.012013593812
12	7752	23	19.990453727444
12	7828	23.1	19.910479812802
12	7904	23.2	20.005258701637
12	8055	23.3	19.988276105863
12	8131	23.4	19.931920157078
12	8282	23.5	19.998801839925
12	8358	23.6	19.931741823657
12	8509	23.7	19.988626531568
12	8660	23.8	19.98688461849
12	8661	23.9	19.962570200859
12	8662	24	20.012347127379
12	8738	24.1	19.947270881723
12	8814	24.2	20.017754348387
12	8965	24.3	19.952648390164
12	9041	24.4	20.005599591292
12	9192	24.5	19.998024449018
12	9268	24.6	19.962952980253
12	9419	24.7	19.928209672396
12	9570	24.8	19.932648212472
12	9571	24.9	19.923970241079
12	9572	25	20.001481418179
12	9648	25.1	19.962793417855
12	9724	25.2	19.96291241607
12	9875	25.3	19.910158524875
12	9951	25.4	19.916333367888
12	10102	25.5	19.939982439697
12	10178	25.6	19.967227272357
12	10329	25.7	19.925860527994
12	10480	25.8	19.976153514646
12	10481	25.9	19.953211071436
12	10482	26	19.901543581351
12	10558	26.1	20.00954932465
12	10634	26.2	19.97988034982
12	10785	26.3	19.913214778863
12	10861	26.4	19.966608021616
12	11012	26.5	20.0181309766
12	11088	26.6	20.005314284582
12	11239	26.7	19.894738306664
12	11390	26.8	19.893606614299
12	11391	26.9	19.914253942972
12	11392	27	19.893728194372
12	11468	27.1	19.918112765563
12	11544	27.2	19.93622587092
12	11695	27.3	19.901857183148
12	11771	27.4	19.950242049625
12	11922	27.5	19.926382009576
12	11998	27.6	19.914626066038
12	12149	27.7	19.92632271953
12	12300	27.8	19.916405822509
12	12301	27.9	19.931723055751
12	12302	28	19.89339000335
12	12378	28.1	19.958715253235
12	12454	28.2	19.932681590582
12	12605	28.3	20.007555302
12	12681	28.4	19.973074068632
12	12832	28.5	19.933936445069
12	12908	28.6	19.963943550839
12	13059	28.7	19.976608291797
12	13210	28.8	19.899815596752
12	13211	28.9	19.954797897751
12	13212	29	19.931406707105
12	13288	29.1	19.93032219508
12	13364	29.2	19.984288241051
12	13515	29.3	19.931861433194
12	13591	29.4	19.972586417485
12	13742	29.5	20.019842386512
12	13818	29.6	19.945361510753
12	13969	29.7	19.946962853049
12	14120	29.8	19.963143726059
12	14121	29.9	19.956588835125
12	14122	30	19.954105306899
12	14198	30.1	19.902210825703
12	14274	30.2	19.989377937168
11	119	2.8	34.933228264969
11	120	2.9	34.933228264969
11	121	3	34.936851416045
11	122	3.1	34.944079008262
11	123	3.2	34.954931683856
11	124	3.3	34.968817244441
11	125	3.4	34.985657142098
11	126	3.5	35.00524238858
11	127	3.6	35.037229139004
11	149	3.7	35.081725870097
11	192	3.8	35.139106672636
11	193	3.9	35.208803229255
11	194	4	35.291838084295
11	195	4.1	35.387247285959
11	196	4.2	35.495933610685
11	197	4.3	35.616440240344
11	198	4.4	35.749535876652
11	199	4.5	35.895415387978
11	200	4.6	36.044449994182
11	222	4.7	36.195713083788
11	265	4.8	36.349782942772
11	266	4.9	36.506455435839
11	267	5	36.666729834101
11	268	5.1	36.829517416408
11	269	5.2	36.99482825426
11	270	5.3	37.162653551512
11	271	5.4	37.332399149442
11	272	5.5	37.50454124135
11	273	5.6	37.682699208639
11	295	5.7	37.761752034553
11	338	5.8	37.842629561216
11	339	5.9	37.925835557652
11	340	6	38.010983849535
11	341	6.1	38.099771089865
11	342	6.2	38.191964354305
11	376	6.3	38.287246657543
11	377	6.4	38.384350284923
11	378	6.5	38.494727594996
11	379	6.6	38.618216039222
11	413	6.7	38.755077182672
11	480	6.8	38.904757432971
11	481	6.9	39.067639484761
11	482	7	39.243356419119
11	516	7.1	39.431985295213
11	517	7.2	39.632936232482
11	551	7.3	39.846705936808
11	552	7.4	40.072314071078
11	553	7.5	40.300580942696
11	554	7.6	40.530947041916
11	588	7.7	40.764189540464
11	655	7.8	40.901485570355
11	656	7.9	41.041173946293
11	657	8	41.183547022357
11	691	8.1	41.32918723812
11	692	8.2	41.4776597132
11	726	8.3	41.628173541431
11	727	8.4	41.724241501638
11	728	8.5	41.795182913719
11	729	8.6	41.867326826523
11	763	8.7	41.940561609245
11	842	8.8	42.01468747674
11	843	8.9	42.090111931965
11	844	9	42.16680223731
11	884	9.1	42.244675125193
11	885	9.2	42.323835611337
11	964	9.3	42.404521893926
11	965	9.4	42.48607861299
11	966	9.5	42.569113774213
11	967	9.6	42.653151256511
11	1007	9.7	42.738172717526
11	1086	9.8	42.824247713639
11	1087	9.9	42.911169242215
11	1088	10	42.999073097912
11	1128	10.1	43.088360774489
11	1129	10.2	43.179213291516
11	1208	10.3	43.271138746535
11	1209	10.4	43.364280044579
11	1210	10.5	43.458343255618
11	1211	10.6	43.553337707736
11	1251	10.7	43.649239125533
11	1330	10.8	43.746101218169
11	1331	10.9	43.844534515483
11	1332	11	43.923186637507
11	1372	11.1	43.937347969488
11	1373	11.2	43.95170796841
11	1452	11.3	43.966278508568
11	1453	11.4	43.981072311826
11	1454	11.5	43.996019056469
11	1455	11.6	44.011127653723
11	1495	11.7	44.026389062821
11	1574	11.8	44.041833178564
11	1575	11.9	44.057484646601
11	1576	12	44.073332874268
11	1616	12.1	44.089245028849
11	1668	12.2	44.10508342095
11	1771	12.3	44.116529206813
11	1772	12.4	44.049222080612
11	1824	12.5	43.982201759636
11	1825	12.6	43.915199237361
11	1877	12.7	43.848020632625
11	1980	12.8	43.780913814059
11	1981	12.9	43.713698075802
11	1982	13	43.64641000623
11	2034	13.1	43.579314421465
11	2086	13.2	43.512037441801
11	2189	13.3	43.445152943572
11	2190	13.4	43.377887301855
11	2242	13.5	43.31081873228
11	2243	13.6	43.20966246158
11	2295	13.7	43.053301048471
11	2398	13.8	42.896932345086
11	2399	13.9	42.739868464959
11	2400	14	42.583129095933
11	2452	14.1	42.426368722061
11	2504	14.2	42.269662944693
11	2607	14.3	42.113346633536
11	2608	14.4	41.956239610392
11	2660	14.5	41.799098524538
11	2661	14.6	41.642301245971
11	2713	14.7	41.485977434718
11	2828	14.8	41.329134241867
11	2829	14.9	41.172345093744
11	2830	15	41.015811595454
11	2888	15.1	40.858459439446
11	2946	15.2	40.701214848332
11	3061	15.3	40.544711951083
11	3062	15.4	40.38734212417
11	3120	15.5	40.23094235998
11	3121	15.6	40.074153425216
11	3236	15.7	39.917258985886
11	3351	15.8	39.760869464756
11	3352	15.9	39.603894999119
11	3353	16	39.447103377521
11	3411	16.1	39.290441208612
11	3469	16.2	39.133448186548
11	3584	16.3	38.976693606439
11	3585	16.4	38.820014996608
11	3643	16.5	38.662754886704
11	3644	16.6	38.506135809179
11	3759	16.7	38.349468468398
11	3874	16.8	38.192467122729
11	3875	16.9	38.035931064298
11	3876	17	37.878932665938
11	3934	17.1	37.722384733916
11	3992	17.2	37.565982942072
11	4107	17.3	37.409333440144
11	4108	17.4	37.252013622003
11	4166	17.5	37.095689300468
11	4167	17.6	36.938689513667
11	4282	17.7	36.781749780204
11	4397	17.8	36.625213365965
11	4398	17.9	36.468461822176
11	4399	18	36.311936570307
11	4457	18.1	36.15490419648
11	4515	18.2	35.997510731576
11	4630	18.3	35.840513172226
11	4631	18.4	35.682111196105
11	4689	18.5	35.521453596567
11	4690	18.6	35.359467859863
11	4805	18.7	35.196342275226
11	4920	18.8	35.031480193285
11	4921	18.9	34.865404681025
11	4922	19	34.697583391118
11	4980	19.1	34.528347305961
11	5038	19.2	34.357074713127
11	5153	19.3	34.184337375791
11	5154	19.4	34.009522276196
11	5212	19.5	33.834463611404
11	5213	19.6	33.649993012675
11	5328	19.7	33.455958851179
11	5443	19.8	33.251248778274
11	5444	19.9	33.037270774031
11	5445	20	32.812639436591
11	5503	20.1	32.578446717991
11	5573	20.2	32.334101514576
11	5712	20.3	32.079340716894
11	5782	20.4	31.814926429567
11	5921	20.5	31.541138570794
11	5922	20.6	31.266918504202
11	6061	20.7	30.993062455856
11	6200	20.8	30.718844063306
11	6201	20.9	30.383546421805
11	6202	21	30.108927092068
11	6272	21.1	29.835087940307
11	6342	21.2	29.561286937468
11	6481	21.3	29.287238411299
11	6551	21.4	29.013327182841
11	6690	21.5	28.738990166237
11	6691	21.6	28.465202872241
11	6830	21.7	28.191595910999
11	6969	21.8	27.917216449616
11	6970	21.9	27.643010691127
11	6971	22	27.369529548739
11	7041	22.1	27.105617527666
11	7111	22.2	26.85142722144
11	7250	22.3	26.607293040066
11	7320	22.4	26.373001059313
11	7459	22.5	26.149301019325
11	7460	22.6	25.934879249919
11	7599	22.7	25.730473698682
11	7750	22.8	25.535936782899
11	7751	22.9	25.351004977209
11	7752	23	25.176112253973
11	7828	23.1	25.001407950743
11	7904	23.2	24.827402570471
11	8055	23.3	24.652568880848
11	8131	23.4	24.482924160035
11	8282	23.5	24.336070326658
11	8358	23.6	24.188723724324
11	8509	23.7	24.041871204867
11	8660	23.8	23.89459957188
11	8661	23.9	23.747340772911
11	8662	24	23.600261117015
11	8738	24.1	23.452814716098
11	8814	24.2	23.30584778209
11	8965	24.3	23.158361542004
11	9041	24.4	23.011354987742
11	9192	24.5	22.863958301129
11	9268	24.6	22.716617426434
11	9419	24.7	22.624468556534
11	9570	24.8	22.577880722682
11	9571	24.9	22.531282512485
11	9572	25	22.484704589505
11	9648	25.1	22.437945462196
11	9724	25.2	22.391276779045
11	9875	25.3	22.344607817702
11	9951	25.4	22.29806218352
11	10102	25.5	22.251502113893
11	10178	25.6	22.204886757863
11	10329	25.7	22.158207709322
11	10480	25.8	22.11162536726
11	10481	25.9	22.064925451099
11	10482	26	22.018279169396
11	10558	26.1	21.971753675084
11	10634	26.2	21.924975686759
11	10785	26.3	21.878267058066
11	10861	26.4	21.831714279024
11	11012	26.5	21.822595228994
11	11088	26.6	21.893262202248
11	11239	26.7	21.963883930677
11	11390	26.8	22.034115309494
11	11391	26.9	22.104342693268
11	11392	27	22.174642965177
11	11468	27.1	22.244870778147
11	11544	27.2	22.315184672272
11	11695	27.3	22.385562508347
11	11771	27.4	22.455819017854
11	11922	27.5	22.52624633312
11	11998	27.6	22.596589418904
11	12149	27.7	22.666891004463
11	12300	27.8	22.737233880944
11	12301	27.9	22.807541749307
11	12302	28	22.877903689776
11	12378	28.1	22.948130308882
11	12454	28.2	23.080274918686
11	12605	28.3	23.302477488551
11	12681	28.4	23.525514724389
11	12832	28.5	23.748167575486
11	12908	28.6	23.97038413403
11	13059	28.7	24.192935201305
11	13210	28.8	24.415627450687
11	13211	28.9	24.637463641936
11	13212	29	24.859912756666
11	13288	29.1	25.082101114575
11	13364	29.2	25.304277382723
11	13515	29.3	25.527055245496
11	13591	29.4	25.749248672533
11	13742	29.5	25.967036402997
11	13818	29.6	26.181987802742
11	13969	29.7	26.396139507456
11	14120	29.8	26.610308405649
11	14121	29.9	26.824651036544
11	14122	30	27.038923288115
11	14198	30.1	27.253168874248
11	14274	30.2	27.466857273608
10	119	2.8	459.56143453489
10	120	2.9	459.56143453489
10	121	3	459.5357881657
10	122	3.1	459.48462786506
10	123	3.2	459.40780751749
10	124	3.3	459.309518982
10	125	3.4	459.19031825775
10	126	3.5	459.05168466192
10	127	3.6	458.89675496805
10	149	3.7	458.72476132678
10	192	3.8	458.53305574746
10	193	3.9	458.32566104799
10	194	4	458.09533917808
10	195	4.1	457.84891344241
10	196	4.2	457.57999356429
10	197	4.3	457.29889158835
10	198	4.4	457.00016628192
10	199	4.5	456.68243827493
10	200	4.6	456.3423770209
10	222	4.7	455.98654151212
10	265	4.8	455.6108383682
10	266	4.9	455.21671255484
10	267	5	454.79709076065
10	268	5.1	454.35967946651
10	269	5.2	453.90440738162
10	270	5.3	453.43133676923
10	271	5.4	452.94467336451
10	272	5.5	452.44104644709
10	273	5.6	451.91546059907
10	295	5.7	451.35622918529
10	338	5.8	450.78408956781
10	339	5.9	450.19547800986
10	340	6	449.59312636588
10	341	6.1	448.96503226094
10	342	6.2	448.31284343634
10	376	6.3	447.6388022932
10	377	6.4	446.95187683297
10	378	6.5	446.2424961587
10	379	6.6	445.51181016285
10	413	6.7	444.75796849532
10	480	6.8	443.98488735067
10	481	6.9	443.18985949025
10	482	7	442.37548055293
10	516	7.1	441.54120541074
10	517	7.2	440.69120696624
10	551	7.3	439.82197144836
10	552	7.4	438.9404339072
10	553	7.5	438.04008806378
10	554	7.6	437.12489197298
10	588	7.7	436.18934780678
10	655	7.8	435.2180953308
10	656	7.9	434.2299190441
10	657	8	433.22275079059
10	691	8.1	432.19247030633
10	692	8.2	431.14215399965
10	726	8.3	430.07739685805
10	727	8.4	429.03831895512
10	728	8.5	427.91655787659
10	729	8.6	426.77578225539
10	763	8.7	425.6177572536
10	842	8.8	424.44564197382
10	843	8.9	423.25299277558
10	844	9	422.04032732232
10	884	9.1	420.80896228266
10	885	9.2	419.55723709551
10	964	9.3	418.28138525207
10	965	9.4	416.99176963187
10	966	9.5	415.67877614503
10	967	9.6	414.3499334562
10	1007	9.7	413.0055316039
10	1086	9.8	411.64447072786
10	1087	9.9	410.27002405725
10	1088	10	408.88004433904
10	1128	10.1	407.46818295317
10	1129	10.2	406.03157752767
10	1208	10.3	404.5780062702
10	1209	10.4	403.10520949487
10	1210	10.5	401.61783497032
10	1211	10.6	400.1157351962
10	1251	10.7	398.59929402729
10	1330	10.8	397.06766218748
10	1331	10.9	395.51118567371
10	1332	11	393.97681267725
10	1372	11.1	392.37658216337
10	1373	11.2	390.75390228516
10	1452	11.3	389.10743124734
10	1453	11.4	387.43573147912
10	1454	11.5	385.74674933447
10	1455	11.6	384.0394778448
10	1495	11.7	382.31493861671
10	1574	11.8	380.5697535378
10	1575	11.9	378.80113764958
10	1576	12	377.01028792323
10	1616	12.1	375.21221445553
10	1668	12.2	373.42247614817
10	1771	12.3	371.66036394389
10	1772	12.4	369.86207590151
10	1824	12.5	368.07145061991
10	1825	12.6	366.28130087771
10	1877	12.7	364.48644662649
10	1980	12.8	362.69351033279
10	1981	12.9	360.89766396123
10	1982	13	359.09988506716
10	2034	13.1	357.30724891419
10	2086	13.2	355.50976631634
10	2189	13.3	353.72276989897
10	2190	13.4	351.92559022436
10	2242	13.5	350.13367585372
10	2243	13.6	348.3733179466
10	2295	13.7	346.59209544225
10	2398	13.8	344.81078988925
10	2399	13.9	343.02156509049
10	2400	14	341.23603702524
10	2452	14.1	339.45026967907
10	2504	14.2	337.66512427995
10	2607	14.3	335.88441556357
10	2608	14.4	334.09469929245
10	2660	14.5	332.30459498911
10	2661	14.6	330.51840723568
10	2713	14.7	328.73761308043
10	2828	14.8	326.95090228519
10	2829	14.9	325.16480715135
10	2830	15	323.38162430402
10	2888	15.1	321.58911555255
10	2946	15.2	319.79783214822
10	3061	15.3	318.0149978988
10	3062	15.4	316.22228784567
10	3120	15.5	314.44062845725
10	3121	15.6	312.65453575393
10	3236	15.7	310.86724117412
10	3351	15.8	309.08569847158
10	3352	15.9	307.29749225598
10	3353	16	305.51136894505
10	3411	16.1	303.72672032047
10	3469	16.2	301.9383027156
10	3584	16.3	300.15260137024
10	3585	16.4	298.36776545559
10	3643	16.5	296.57630526583
10	3644	16.6	294.79214752544
10	3759	16.7	293.00743998443
10	3874	16.8	291.21892755955
10	3875	16.9	289.43571554786
10	3876	17	287.64723669782
10	3934	17.1	285.86388942574
10	3992	17.2	284.0822069389
10	4107	17.3	282.29770261279
10	4108	17.4	280.50556224464
10	4166	17.5	278.72476227641
10	4167	17.6	276.93626760968
10	4282	17.7	275.14845705263
10	4397	17.8	273.36524098767
10	4398	17.9	271.57957423117
10	4399	18	269.7964853246
10	4457	18.1	268.0076194362
10	4515	18.2	266.21464010613
10	4630	18.3	264.42617081386
10	4631	18.4	262.6217028253
10	4689	18.5	260.79153944865
10	4690	18.6	258.9462463302
10	4805	18.7	257.08796840463
10	4920	18.8	255.20990882056
10	4921	18.9	253.31802620081
10	4922	19	251.40625620367
10	4980	19.1	249.47836928172
10	5038	19.2	247.52728307274
10	5153	19.3	245.55951093197
10	5154	19.4	243.56806954431
10	5212	19.5	241.57385353468
10	5213	19.6	239.58677467164
10	5328	19.7	237.60510564487
10	5443	19.8	235.61617491094
10	5444	19.9	233.63602175818
10	5445	20	231.64886410252
10	5503	20.1	229.66714113533
10	5573	20.2	227.68411918037
10	5712	20.3	225.69680097337
10	5782	20.4	223.71386818251
10	5921	20.5	221.73850955227
10	5922	20.6	219.75822733968
10	6061	20.7	217.78209191418
10	6200	20.8	215.80182877178
10	6201	20.9	213.15094159173
10	6202	21	211.16657371559
10	6272	21.1	209.18992807184
10	6342	21.2	207.21371716308
10	6481	21.3	205.23468554415
10	6551	21.4	203.2572185335
10	6690	21.5	201.27489935412
10	6691	21.6	199.29884466771
10	6830	21.7	197.32484500549
10	6969	21.8	195.34204213669
10	6970	21.9	193.36121873997
10	6971	22	191.38865287602
10	7041	22.1	189.4107389137
10	7111	22.2	187.4292157684
10	7250	22.3	185.44789428779
10	7320	22.4	183.46433664811
10	7459	22.5	181.48708668904
10	7460	22.6	179.50117417386
10	7599	22.7	177.51500855738
10	7750	22.8	175.52690802617
10	7751	22.9	173.53386951516
10	7752	23	171.54083845819
10	7828	23.1	169.5499545856
10	7904	23.2	167.56703545354
10	8055	23.3	165.57467712796
10	8131	23.4	163.58360274628
10	8282	23.5	161.59633877526
10	8358	23.6	159.60240652755
10	8509	23.7	157.61516033683
10	8660	23.8	155.62224259367
10	8661	23.9	153.62949852374
10	8662	24	151.63917866412
10	8738	24.1	149.64389591623
10	8814	24.2	147.65510143828
10	8965	24.3	145.65927957647
10	9041	24.4	143.66994894702
10	9192	24.5	141.67533894593
10	9268	24.6	139.6814842061
10	9419	24.7	137.68845569933
10	9570	24.8	135.69668877912
10	9571	24.9	133.70447823967
10	9572	25	131.71313503836
10	9648	25.1	129.71404481908
10	9724	25.2	127.71882135353
10	9875	25.3	125.72358599446
10	9951	25.4	123.73362323423
10	10102	25.5	121.74304331631
10	10178	25.6	119.75009974206
10	10329	25.7	117.75443312558
10	10480	25.8	115.76290099556
10	10481	25.9	113.76634222698
10	10482	26	111.77207648925
10	10558	26.1	109.78297476771
10	10634	26.2	107.78307818451
10	10785	26.3	105.78614692953
10	10861	26.4	103.79587870557
10	11012	26.5	101.80049805669
10	11088	26.6	99.800444561573
10	11239	26.7	97.801671609062
10	11390	26.8	95.813946534664
10	11391	26.9	93.826334530027
10	11392	27	91.836659607432
10	11468	27.1	89.849035455475
10	11544	27.2	87.858974989813
10	11695	27.3	85.867104805765
10	11771	27.4	83.878668469472
10	11922	27.5	81.885397899582
10	11998	27.6	79.894511236389
10	12149	27.7	77.904799134198
10	12300	27.8	75.913918394798
10	12301	27.9	73.9240284734
10	12302	28	71.93260817507
10	12378	28.1	69.945017812488
10	12454	28.2	67.955444584342
10	12605	28.3	65.975112909056
10	12681	28.4	63.987342456318
10	12832	28.5	62.002997748297
10	12908	28.6	60.022541401974
10	13059	28.7	58.039103819946
10	13210	28.8	56.05440798335
10	13211	28.9	54.077341577131
10	13212	29	52.094812624804
10	13288	29.1	50.114607610455
10	13364	29.2	48.134510343451
10	13515	29.3	46.149051496283
10	13591	29.4	44.168801304447
10	13742	29.5	42.183969932649
10	13818	29.6	40.194073311245
10	13969	29.7	38.211579807218
10	14120	29.8	36.228927135822
10	14121	29.9	34.244666146842
10	14122	30	32.261056689231
10	14198	30.1	30.277694084934
10	14274	30.2	28.299489595812
29	843	8.9	1.4075040528835
29	844	9	1.5712286566456
29	884	9.1	1.7702378163009
29	885	9.2	1.7351864784872
29	964	9.3	1.9970297957355
29	965	9.4	1.9799618783502
29	966	9.5	2.1824792111419
29	967	9.6	2.4018451651619
29	1007	9.7	2.2832091828821
29	1086	9.8	2.3950129105477
29	1087	9.9	2.8671945893893
29	1088	10	3.0386582987031
29	1128	10.1	2.9459134421388
29	1129	10.2	2.4851367997203
29	1208	10.3	2.6926283824274
29	1209	10.4	3.3228603508526
29	1210	10.5	3.0377576271531
29	1211	10.6	3.7044793483819
29	1251	10.7	4.0889522736542
29	1330	10.8	3.401388367213
29	1331	10.9	3.236947402834
29	1332	11	3.7985565884527
29	1372	11.1	3.6690772253191
29	1373	11.2	3.2104648524252
29	1452	11.3	3.2996118896257
29	1453	11.4	4.7901573138576
29	1454	11.5	4.3283351832441
29	1455	11.6	3.3893639121525
29	1495	11.7	4.2903821300456
29	1574	11.8	4.06090238194
29	1575	11.9	4.9429931270235
29	1576	12	4.2555338052619
29	1616	12.1	4.0055280301292
29	1668	12.2	5.9540238946311
29	1771	12.3	4.3796752836847
29	1772	12.4	3.8799027481852
29	1824	12.5	4.5183874585257
29	1825	12.6	5.7735898190935
29	1877	12.7	4.5892694071691
29	1980	12.8	6.4773105553078
29	1981	12.9	5.6957923027869
29	1982	13	4.5308773749064
29	2034	13.1	6.3249417759492
29	2086	13.2	6.4761930401556
29	2189	13.3	7.0838089255632
29	2190	13.4	7.5849126196941
29	2242	13.5	5.693294247272
29	2243	13.6	7.2656731268462
29	2295	13.7	7.2370828395933
29	2398	13.8	6.6233176007325
29	2399	13.9	8.2236443287752
29	2400	14	6.5853787369774
29	2452	14.1	8.1944078625455
29	2504	14.2	6.7561994698404
29	2607	14.3	6.4499375260063
29	2608	14.4	8.7548787891668
29	2660	14.5	7.7359153168468
29	2661	14.6	6.7775565742169
29	2713	14.7	7.9554940610144
29	2828	14.8	9.5309354500972
29	2829	14.9	7.7325806837133
29	2830	15	7.3129955140806
29	2888	15.1	8.0213049556351
29	2946	15.2	6.3218844673822
29	3061	15.3	7.9012664962545
29	3062	15.4	6.6361640000362
29	3120	15.5	10.04631445872
29	3121	15.6	10.204154186127
29	3236	15.7	7.3464384289852
29	3351	15.8	9.2905055678241
29	3352	15.9	10.498839959311
29	3353	16	7.0727418202796
29	3411	16.1	9.8859366890118
29	3469	16.2	8.0782439144176
29	3584	16.3	8.2805320437672
29	3585	16.4	7.5942759025531
29	3643	16.5	8.9475261939884
29	3644	16.6	8.4074101466492
29	3759	16.7	10.530967367594
29	3874	16.8	11.075522086453
29	3875	16.9	7.962556397479
29	3876	17	10.486001260596
29	3934	17.1	7.7610727390604
29	3992	17.2	10.319336346169
29	4107	17.3	12.524603352419
29	4108	17.4	12.982295790963
29	4166	17.5	10.286986839447
29	4167	17.6	11.515768737803
29	4282	17.7	6.6826844101574
29	4397	17.8	5.8993103970836
29	4398	17.9	0.973
29	4399	18	2.7229899460042
29	4457	18.1	0.973
29	4515	18.2	4.8427363076793
29	4630	18.3	1.6485527202365
29	4631	18.4	4.5067428324097
29	4689	18.5	0.973
29	4690	18.6	6.0150709669304
29	4805	18.7	2.1368431807972
29	4920	18.8	2.2049070836019
29	4921	18.9	3.2258668072084
29	4922	19	0.973
29	4980	19.1	0.973
29	5038	19.2	4.7784796138376
29	5153	19.3	5.3302705474987
29	5154	19.4	2.0221666748773
29	5212	19.5	1.7310462242161
29	5213	19.6	2.2726870486164
29	5328	19.7	1.0237370608075
29	5443	19.8	4.0570072308599
29	5444	19.9	2.5072031347347
29	5445	20	0.87321993085256
29	5503	20.1	2.5577864963611
29	5573	20.2	1.0899538550298
29	5712	20.3	5.7783626855608
29	5782	20.4	0.973
29	5921	20.5	1.0972560192292
29	5922	20.6	4.959071325856
29	6061	20.7	4.1560883124099
29	6200	20.8	2.4192180767061
29	6201	20.9	0.973
29	6202	21	2.6171137003145
29	6272	21.1	3.2570366887255
29	6342	21.2	3.435939483523
29	6481	21.3	5.7882870876558
29	6551	21.4	0.973
29	6690	21.5	5.4701446877526
29	6691	21.6	1.5855840950372
29	6830	21.7	2.1368187427251
29	6969	21.8	2.9971326532668
29	6970	21.9	3.6468353115639
29	6971	22	2.0740084427777
29	7041	22.1	2.4607688756378
29	7111	22.2	0.973
29	7250	22.3	5.70264433438
29	7320	22.4	4.3264226358912
29	7459	22.5	0.973
29	7460	22.6	5.0005087187529
29	7599	22.7	3.0445451896807
29	7750	22.8	0.973
29	7751	22.9	2.9983032423054
29	7752	23	3.2531942944209
29	7828	23.1	3.1128976239307
29	7904	23.2	5.9635116009307
29	8055	23.3	0.973
29	8131	23.4	2.7911647854009
29	8282	23.5	4.2361582453961
29	8358	23.6	2.0775501453792
29	8509	23.7	4.895823539048
29	8660	23.8	2.3077259920621
29	8661	23.9	0.973
29	8662	24	4.1637582262836
29	8738	24.1	8.6816210935106
29	8814	24.2	11.383955147611
29	8965	24.3	13.453293190438
29	9041	24.4	9.8647480940571
29	9192	24.5	13.26281947893
29	9268	24.6	14.273249637162
29	9419	24.7	14.331272525455
29	9570	24.8	14.098806300747
29	9571	24.9	14.172304079627
29	9572	25	15.183086618838
29	9648	25.1	15.223702953937
29	9724	25.2	12.831844181339
29	9875	25.3	14.3055807469
29	9951	25.4	14.136849814273
29	10102	25.5	16.178296282639
29	10178	25.6	14.815059977354
29	10329	25.7	13.648078783082
29	10480	25.8	14.55104721183
29	10481	25.9	16.298321827721
29	10482	26	14.325394143666
29	10558	26.1	2.5498010443105
29	10634	26.2	5.8658368203952
29	10785	26.3	1.6949719489283
29	10861	26.4	4.4586996046756
29	11012	26.5	2.1459035862299
29	11088	26.6	3.7716595984251
29	11239	26.7	1.5921659242278
29	11390	26.8	4.3218891136609
29	11391	26.9	4.7708726553234
29	11392	27	3.5766672334182
29	11468	27.1	1.7343810424692
29	11544	27.2	3.3982832731072
29	11695	27.3	1.9410360154713
29	11771	27.4	4.4839440519542
29	11922	27.5	3.7300971824879
29	11998	27.6	1.2873481710604
29	12149	27.7	5.1397028139364
29	12300	27.8	3.2028334129123
29	12301	27.9	1.3905368981882
29	12302	28	6.2504979601021
29	12378	28.1	1.703618356014
29	12454	28.2	3.6369760200412
29	12605	28.3	3.451315482264
29	12681	28.4	0.89836781083587
29	12832	28.5	6.4756930438689
29	12908	28.6	1.8102279441151
29	13059	28.7	0.973
29	13210	28.8	7.2578078678495
29	13211	28.9	0.82410193422312
29	13212	29	5.9555583006364
29	13288	29.1	0.27533344370047
29	13364	29.2	7.43767767252
29	13515	29.3	0.973
29	13591	29.4	3.9445071369551
29	13742	29.5	0.4191279209431
29	13818	29.6	8.3109984336116
29	13969	29.7	0.77174140419868
29	14120	29.8	0.66065438836708
29	14121	29.9	5.0575602638576
29	14122	30	8.0419568912064
29	14198	30.1	0.973
29	14274	30.2	7.7106417108025
29	14425	30.3	1.9610984607057
29	14495	30.4	2.4427405631156
29	14634	30.5	2.8415172865845
29	14704	30.6	1.8047800287009
29	14774	30.7	3.3815543153956
29	14913	30.8	9.2137758661026
29	14914	30.9	0.973
29	14915	31	4.3002353874666
29	14985	31.1	0.973
29	15055	31.2	8.1331825739343
29	15194	31.3	2.6723164081619
29	15264	31.4	0.973
29	15403	31.5	8.3080701146575
29	15473	31.6	1.4473040183835
29	15543	31.7	3.5169466708965
29	15682	31.8	3.9833089471159
29	15683	31.9	1.765481559195
29	15684	32	2.1626717174067
29	15754	32.1	2.2907926064541
29	15824	32.2	2.7990223426645
29	15963	32.3	6.6207831323802
29	16033	32.4	2.5395826637552
29	16172	32.5	5.9246494560663
29	16242	32.6	0.973
29	16312	32.7	9.3025008753196
29	16451	32.8	0.973
29	16452	32.9	5.8377967658061
29	16453	33	0.92446495731042
29	16523	33.1	7.2540913475244
29	16593	33.2	0.69496556530146
29	16732	33.3	5.0730708023061
29	16802	33.4	0.973
29	16941	33.5	8.3014252522904
29	17011	33.6	2.4129274955591
29	17081	33.7	1.1727809799125
29	17220	33.8	0.54251729238704
29	17221	33.9	8.0582294254501
29	17222	34	1.0236049263478
29	17292	34.1	3.0453086848275
29	17362	34.2	5.0952500520087
29	17501	34.3	2.78285093637
29	17571	34.4	5.5962058095516
29	17710	34.5	0.973
29	17780	34.6	1.9747528781898
29	17850	34.7	3.6505320275744
29	17989	34.8	2.9478923496425
28	843	8.9	2.3516177202583
28	844	9	2.4322262372689
28	884	9.1	2.5806614554895
28	885	9.2	1.9901905944651
28	964	9.3	2.386178915711
28	965	9.4	2.0206049043706
28	966	9.5	2.2096127549634
28	967	9.6	2.371719603817
28	1007	9.7	1.9362647327138
28	1086	9.8	1.9545023606269
28	1087	9.9	2.477877342212
28	1088	10	2.4919537673704
28	1128	10.1	2.1858603585744
28	1129	10.2	1.5049552971032
28	1208	10.3	1.6687746427953
28	1209	10.4	2.2558507863898
28	1210	10.5	1.8375331870746
28	1211	10.6	2.3855774012394
28	1251	10.7	2.5938958732877
28	1330	10.8	1.8594960743096
28	1331	10.9	1.6442477734294
28	1332	11	2.0367255169898
28	1372	11.1	1.8509954633424
28	1373	11.2	1.4351500939112
28	1452	11.3	1.4584147444693
28	1453	11.4	2.4721491126809
28	1454	11.5	2.0525600930909
28	1455	11.6	1.3547436084365
28	1495	11.7	1.9068851238815
28	1574	11.8	1.7005597534589
28	1575	11.9	2.1898296759231
28	1576	12	1.7075487979688
28	1616	12.1	1.5149866244756
28	1668	12.2	2.5762252358487
28	1771	12.3	1.6248123938916
28	1772	12.4	1.3144805862801
28	1824	12.5	1.6273846509866
28	1825	12.6	2.2354228100972
28	1877	12.7	1.5739368682029
28	1980	12.8	2.46580618429
28	1981	12.9	2.0177384180948
28	1982	13	1.4188258441864
28	2034	13.1	2.2183016137453
28	2086	13.2	2.2258920540335
28	2189	13.3	2.4309628601186
28	2190	13.4	2.5748229540652
28	2242	13.5	1.7175138103077
28	2243	13.6	2.3248834555969
28	2295	13.7	2.2547893451061
28	2398	13.8	1.9609548916342
28	2399	13.9	2.5306286922889
28	2400	14	1.8536471112398
28	2452	14.1	2.4092528561363
28	2504	14.2	1.8339028015267
28	2607	14.3	1.6903141299728
28	2608	14.4	2.4669652404264
28	2660	14.5	2.0617272180738
28	2661	14.6	1.697279794584
28	2713	14.7	2.0615669539431
28	2828	14.8	2.5350605035201
28	2829	14.9	1.9033346688142
28	2830	15	1.7370669565164
28	2888	15.1	1.9306441601831
28	2946	15.2	1.3720268138684
28	3061	15.3	1.8374784495449
28	3062	15.4	1.4255775132449
28	3120	15.5	2.4212828865275
28	3121	15.6	2.4189407535829
28	3236	15.7	1.5503913222812
28	3351	15.8	2.0830201159231
28	3352	15.9	2.3850395479472
28	3353	16	1.3942388477735
28	3411	16.1	2.1479043830186
28	3469	16.2	1.6239442666527
28	3584	16.3	1.656202616333
28	3585	16.4	1.451702081156
28	3643	16.5	1.7892261319561
28	3644	16.6	1.6237748316256
28	3759	16.7	2.1464321597945
28	3874	16.8	2.2490937381051
28	3875	16.9	1.4353479200043
28	3876	17	2.0434814526234
28	3934	17.1	1.345707936096
28	3992	17.2	1.952458209754
28	4107	17.3	2.4508302391507
28	4108	17.4	2.5167124749627
28	4166	17.5	1.8480935104191
28	4167	17.6	2.1062557228375
28	4282	17.7	0.97031239854211
28	4397	17.8	0.7826247207122
28	4398	17.9	-0.41051974070722
28	4399	18	0.050064279860784
28	4457	18.1	-0.39950061223934
28	4515	18.2	0.53989167714025
28	4630	18.3	-0.19853510544635
28	4631	18.4	0.4606667874614
28	4689	18.5	-0.54846463040452
28	4690	18.6	0.80706005182584
28	4805	18.7	-0.087170531717113
28	4920	18.8	-0.071266424004008
28	4921	18.9	0.16374267325737
28	4922	19	-0.574921573163
28	4980	19.1	-0.53921010419728
28	5038	19.2	0.52541146497244
28	5153	19.3	0.6486762663582
28	5154	19.4	-0.11373072916175
28	5212	19.5	-0.18049949000122
28	5213	19.6	-0.055258791614321
28	5328	19.7	-0.34333538289648
28	5443	19.8	0.35685406990815
28	5444	19.9	-0.0011242894223074
28	5445	20	-0.37814787034876
28	5503	20.1	0.011747369496149
28	5573	20.2	-0.32755417742301
28	5712	20.3	0.75402690772897
28	5782	20.4	-0.49396596199365
28	5921	20.5	-0.3257718910929
28	5922	20.6	0.56644798272757
28	6061	20.7	0.3787646304583
28	6200	20.8	-0.021948233898712
28	6201	20.9	-1.0190073945094
28	6202	21	0.02701458858791
28	6272	21.1	0.17478683365045
28	6342	21.2	0.21531837580259
28	6481	21.3	0.75442835926079
28	6551	21.4	-0.80382163666656
28	6690	21.5	0.6819204064319
28	6691	21.6	-0.21396681680343
28	6830	21.7	-0.086391867860236
28	6969	21.8	0.11202048214617
28	6970	21.9	0.2608790018596
28	6971	22	-0.10161860715598
28	7041	22.1	-0.01232578400522
28	7111	22.2	-1.0102211188525
28	7250	22.3	0.73785114334896
28	7320	22.4	0.41745055415667
28	7459	22.5	-0.89821871456223
28	7460	22.6	0.57495790866668
28	7599	22.7	0.12261875427793
28	7750	22.8	-1.0106180640869
28	7751	22.9	0.11535605026875
28	7752	23	0.17377413623034
28	7828	23.1	0.14069670403842
28	7904	23.2	0.79486818246078
28	8055	23.3	-1.0064507178497
28	8131	23.4	0.06669419142419
28	8282	23.5	0.39947786796837
28	8358	23.6	-0.09950716921594
28	8509	23.7	0.54923749733717
28	8660	23.8	-0.047705683857195
28	8661	23.9	-0.47158279351425
28	8662	24	0.38108000226785
28	8738	24.1	1.4086231864058
28	8814	24.2	1.9992017307086
28	8965	24.3	2.4280525429407
28	9041	24.4	1.6064859037288
28	9192	24.5	2.3234461967368
28	9268	24.6	2.5034640356433
28	9419	24.7	2.4759549823124
28	9570	24.8	2.3891328353901
28	9571	24.9	2.3682986067608
28	9572	25	2.5380499224412
28	9648	25.1	2.5068790455698
28	9724	25.2	1.9948415964842
28	9875	25.3	2.2589643007144
28	9951	25.4	2.1948601255193
28	10102	25.5	2.557125292311
28	10178	25.6	2.2602211938705
28	10329	25.7	2.0099196919822
28	10480	25.8	2.1534121057485
28	10481	25.9	2.4476646439173
28	10482	26	2.0530294510265
28	10558	26.1	-0.12599647359455
28	10634	26.2	0.48533277075041
28	10785	26.3	-0.28473632783864
28	10861	26.4	0.22558552905686
28	11012	26.5	-0.20136931287126
28	11088	26.6	0.099000773893216
28	11239	26.7	-0.30337568891699
28	11390	26.8	0.20119219083568
28	11391	26.9	0.28291335967371
28	11392	27	0.062033202522436
28	11468	27.1	-0.27764243019046
28	11544	27.2	0.029975977842689
28	11695	27.3	-0.2389206224354
28	11771	27.4	0.23077082829552
28	11922	27.5	0.091012904385579
28	11998	27.6	-0.35985708732625
28	12149	27.7	0.35161958398533
28	12300	27.8	-0.0064012205927
28	12301	27.9	-0.34076074704064
28	12302	28	0.55571613283831
28	12378	28.1	-0.28339751075258
28	12454	28.2	0.073834638809807
28	12605	28.3	0.039370277058346
28	12681	28.4	-0.43181089436402
28	12832	28.5	0.59733489369972
28	12908	28.6	-0.26371794955338
28	13059	28.7	-0.76565747670831
28	13210	28.8	0.74371985748876
28	13211	28.9	-0.44536555714441
28	13212	29	0.50257603076755
28	13288	29.1	-0.54700218404179
28	13364	29.2	0.77500566144007
28	13515	29.3	-0.86215461480897
28	13591	29.4	0.13281433540399
28	13742	29.5	-0.51981173392853
28	13818	29.6	0.93867331549991
28	13969	29.7	-0.45501735941507
28	14120	29.8	-0.47496666721997
28	14121	29.9	0.3399061041884
28	14122	30	0.88671217742377
28	14198	30.1	-1.222778144991
28	14274	30.2	0.82834111216943
28	14425	30.3	-0.2349012242863
28	14495	30.4	-0.1452821755316
28	14634	30.5	-0.071148970909434
28	14704	30.6	-0.26275647282599
28	14774	30.7	0.029811321524917
28	14913	30.8	1.1029445379739
28	14914	30.9	-0.71523529428521
28	14915	31	0.1977596079232
28	14985	31.1	-0.65029837330801
28	15055	31.2	0.90534845616201
28	15194	31.3	-0.10403370228595
28	15264	31.4	-0.85681069241836
28	15403	31.5	0.93786041219715
28	15473	31.6	-0.33014178477458
28	15543	31.7	0.052934782987002
28	15682	31.8	0.13871158619878
28	15683	31.9	-0.27103977298832
28	15684	32	-0.19694922503547
28	15754	32.1	-0.17272815008184
28	15824	32.2	-0.078177531785322
28	15963	32.3	0.62729659655595
28	16033	32.4	-0.12778457440437
28	16172	32.5	0.49634182346054
28	16242	32.6	-1.1015771697042
28	16312	32.7	1.120414102776
28	16451	32.8	-1.0994272723561
28	16452	32.9	0.48364652821327
28	16453	33	-0.42609928785822
28	16523	33.1	0.74391799564474
28	16593	33.2	-0.46908181570469
28	16732	33.3	0.34099983505438
28	16802	33.4	-0.61565059181305
28	16941	33.5	0.93623533020729
28	17011	33.6	-0.1519627605332
28	17081	33.7	-0.38071354294662
28	17220	33.8	-0.49689118554817
28	17221	33.9	0.89229727843776
28	17222	34	-0.40833646503742
28	17292	34.1	-0.033556421822851
28	17362	34.2	0.34467475842682
28	17501	34.3	-0.083014550502405
28	17571	34.4	0.43547526646872
28	17710	34.5	-0.94238899743651
28	17780	34.6	-0.23082724872509
28	17850	34.7	0.080135595193127
28	17989	34.8	-0.05016757056584
27	842	8.8	0.2485834849088
27	843	8.9	0.48374525693463
27	844	9	0.72696788066151
27	884	9.1	0.98503402621047
27	885	9.2	1.184053085657
27	964	9.3	1.4226709772281
27	965	9.4	1.6247314676651
27	966	9.5	1.8456927431615
27	967	9.6	2.0828647035432
27	1007	9.7	2.2764911768146
27	1086	9.8	2.4719414128773
27	1087	9.9	2.7197291470985
27	1088	10	2.9689245238355
27	1128	10.1	3.1875105596929
27	1129	10.2	3.3380060894033
27	1208	10.3	3.5048835536828
27	1209	10.4	3.7304686323218
27	1210	10.5	3.9142219510292
27	1211	10.6	4.1527796911532
27	1251	10.7	4.4121692784819
27	1330	10.8	4.5981188859129
27	1331	10.9	4.7625436632558
27	1332	11	4.9662162149548
27	1372	11.1	5.1513157612891
27	1373	11.2	5.2948307706802
27	1452	11.3	5.4406722451271
27	1453	11.4	5.6878871563952
27	1454	11.5	5.8931431657043
27	1455	11.6	6.0286175265479
27	1495	11.7	6.2193060389361
27	1574	11.8	6.389362014282
27	1575	11.9	6.6083449818743
27	1576	12	6.7790998616712
27	1616	12.1	6.9305985241187
27	1668	12.2	7.1882210477036
27	1771	12.3	7.3507022870928
27	1772	12.4	7.4821503457208
27	1824	12.5	7.6448888108194
27	1825	12.6	7.8684310918292
27	1877	12.7	8.0258247786495
27	1980	12.8	8.2724053970784
27	1981	12.9	8.4741792388879
27	1982	13	8.6160618233066
27	2034	13.1	8.8378919846811
27	2086	13.2	9.0604811900844
27	2189	13.3	9.3035774760963
27	2190	13.4	9.5610597715028
27	2242	13.5	9.7328111525336
27	2243	13.6	9.9652994980933
27	2295	13.7	10.190778432604
27	2398	13.8	10.386873921767
27	2399	13.9	10.639936790996
27	2400	14	10.82530150212
27	2452	14.1	11.066226787734
27	2504	14.2	11.249617067886
27	2607	14.3	11.418648480884
27	2608	14.4	11.665345004926
27	2660	14.5	11.871517726734
27	2661	14.6	12.041245706192
27	2713	14.7	12.247402401586
27	2828	14.8	12.500908451938
27	2829	14.9	12.69124191882
27	2830	15	12.864948614472
27	2888	15.1	13.05801303049
27	2946	15.2	13.195215711877
27	3061	15.3	13.378963556831
27	3062	15.4	13.521521308156
27	3120	15.5	13.763649596808
27	3121	15.6	14.005543672167
27	3236	15.7	14.160582804395
27	3351	15.8	14.368884815987
27	3352	15.9	14.607388770782
27	3353	16	14.746812655559
27	3411	16.1	14.961603093861
27	3469	16.2	15.123997520526
27	3584	16.3	15.28961778216
27	3585	16.4	15.434787990275
27	3643	16.5	15.613710603471
27	3644	16.6	15.776088086633
27	3759	16.7	15.990731302613
27	3874	16.8	16.215640676423
27	3875	16.9	16.359175468424
27	3876	17	16.563523613686
27	3934	17.1	16.698094407296
27	3992	17.2	16.893340228271
27	4107	17.3	17.138423252186
27	4108	17.4	17.390094499683
27	4166	17.5	17.574903850724
27	4167	17.6	17.785529423008
27	4282	17.7	17.882560662862
27	4397	17.8	17.960823134934
27	4398	17.9	17.919771160863
27	4399	18	17.924777588849
27	4457	18.1	17.884827527625
27	4515	18.2	17.938816695339
27	4630	18.3	17.918963184794
27	4631	18.4	17.965029863541
27	4689	18.5	17.9101834005
27	4690	18.6	17.990889405683
27	4805	18.7	17.982172352511
27	4920	18.8	17.975045710111
27	4921	18.9	17.991419977436
27	4922	19	17.93392782012
27	4980	19.1	17.8800068097
27	5038	19.2	17.932547956198
27	5153	19.3	17.997415582833
27	5154	19.4	17.986042509917
27	5212	19.5	17.967992560917
27	5213	19.6	17.962466681756
27	5328	19.7	17.928133143466
27	5443	19.8	17.963818550457
27	5444	19.9	17.963706121515
27	5445	20	17.92589133448
27	5503	20.1	17.927066071429
27	5573	20.2	17.894310653687
27	5712	20.3	17.96971334446
27	5782	20.4	17.920316748261
27	5921	20.5	17.887739559151
27	5922	20.6	17.944384357424
27	6061	20.7	17.98226082047
27	6200	20.8	17.98006599708
27	6201	20.9	17.878165257629
27	6202	21	17.880866716488
27	6272	21.1	17.898345399853
27	6342	21.2	17.919877237433
27	6481	21.3	17.995320073359
27	6551	21.4	17.914937909693
27	6690	21.5	17.983129950336
27	6691	21.6	17.961733268655
27	6830	21.7	17.953094081869
27	6969	21.8	17.964296130084
27	6970	21.9	17.99038403027
27	6971	22	17.980222169554
27	7041	22.1	17.978989591154
27	7111	22.2	17.877967479269
27	7250	22.3	17.951752593603
27	7320	22.4	17.993497649019
27	7459	22.5	17.903675777563
27	7460	22.6	17.96117156843
27	7599	22.7	17.973433443857
27	7750	22.8	17.872371637449
27	7751	22.9	17.883907242476
27	7752	23	17.901284656099
27	7828	23.1	17.915354326502
27	7904	23.2	17.994841144748
27	8055	23.3	17.894196072964
27	8131	23.4	17.900865492106
27	8282	23.5	17.940813278903
27	8358	23.6	17.930862561981
27	8509	23.7	17.985786311715
27	8660	23.8	17.981015743329
27	8661	23.9	17.933857463978
27	8662	24	17.971965464205
27	8738	24.1	18.112827782845
27	8814	24.2	18.312747955916
27	8965	24.3	18.55555321021
27	9041	24.4	18.716201800583
27	9192	24.5	18.948546420257
27	9268	24.6	19.198892823821
27	9419	24.7	19.446488322052
27	9570	24.8	19.685401605591
27	9571	24.9	19.922231466267
27	9572	25	20.176036458511
27	9648	25.1	20.426724363068
27	9724	25.2	20.626208522717
27	9875	25.3	20.852104952788
27	9951	25.4	21.07159096534
27	10102	25.5	21.327303494571
27	10178	25.6	21.553325613958
27	10329	25.7	21.754317583157
27	10480	25.8	21.969658793731
27	10481	25.9	22.214425258123
27	10482	26	22.419728203226
27	10558	26.1	22.407128555866
27	10634	26.2	22.455661832941
27	10785	26.3	22.427188200157
27	10861	26.4	22.449746753063
27	11012	26.5	22.429609821776
27	11088	26.6	22.439509899165
27	11239	26.7	22.409172330274
27	11390	26.8	22.429291549357
27	11391	26.9	22.457582885325
27	11392	27	22.463786205577
27	11468	27.1	22.436021962558
27	11544	27.2	22.439019560342
27	11695	27.3	22.415127498099
27	11771	27.4	22.438204580928
27	11922	27.5	22.447305871367
27	11998	27.6	22.411320162634
27	12149	27.7	22.446482121033
27	12300	27.8	22.445841998973
27	12301	27.9	22.411765924269
27	12302	28	22.467337537553
27	12378	28.1	22.438997786478
27	12454	28.2	22.446381250359
27	12605	28.3	22.450318278065
27	12681	28.4	22.407137188628
27	12832	28.5	22.466870677998
27	12908	28.6	22.440498883043
27	13059	28.7	22.363933135372
27	13210	28.8	22.438305121121
27	13211	28.9	22.393768565406
27	13212	29	22.444026168483
27	13288	29.1	22.389325950079
27	13364	29.2	22.466826516223
27	13515	29.3	22.380611054742
27	13591	29.4	22.393892488283
27	13742	29.5	22.34191131489
27	13818	29.6	22.43577864644
27	13969	29.7	22.390276910498
27	14120	29.8	22.342780243776
27	14121	29.9	22.376770854195
27	14122	30	22.465442071937
27	14198	30.1	22.343164257438
27	14274	30.2	22.425998368655
27	14425	30.3	22.402508246227
27	14495	30.4	22.387980028673
27	14634	30.5	22.380865131582
27	14704	30.6	22.3545894843
27	14774	30.7	22.357570616452
27	14913	30.8	22.46786507025
27	14914	30.9	22.396341540821
27	14915	31	22.416117501614
27	14985	31.1	22.351087664283
27	15055	31.2	22.441622509899
27	15194	31.3	22.43121913967
27	15264	31.4	22.345538070429
27	15403	31.5	22.439324111648
27	15473	31.6	22.406309933171
27	15543	31.7	22.411603411469
27	15682	31.8	22.425474570089
27	15683	31.9	22.398370592791
27	15684	32	22.378675670287
27	15754	32.1	22.361402855279
27	15824	32.2	22.3535851021
27	15963	32.3	22.416314761756
27	16033	32.4	22.403536304315
27	16172	32.5	22.453170486661
27	16242	32.6	22.343012769691
27	16312	32.7	22.455054179969
27	16451	32.8	22.345111452733
27	16452	32.9	22.393476105554
27	16453	33	22.350866176769
27	16523	33.1	22.425257976333
27	16593	33.2	22.378349794763
27	16732	33.3	22.412449778268
27	16802	33.4	22.350884719087
27	16941	33.5	22.444508252107
27	17011	33.6	22.429311976054
27	17081	33.7	22.391240621759
27	17220	33.8	22.341551503205
27	17221	33.9	22.430781231048
27	17222	34	22.389947584545
27	17292	34.1	22.386591942362
27	17362	34.2	22.421059418205
27	17501	34.3	22.412757963155
27	17571	34.4	22.456305489802
27	17710	34.5	22.362066590058
27	17780	34.6	22.338983865186
27	17850	34.7	22.346997424705
27	17989	34.8	22.341980667648
26	763	8.7	34.933228264969
26	842	8.8	34.933228264969
26	843	8.9	34.936704672177
26	844	9	34.943469785713
26	884	9.1	34.953636335521
26	885	9.2	34.967411906294
26	964	9.3	34.99387241071
26	965	9.4	35.033571633205
26	966	9.5	35.085998323352
26	967	9.6	35.151416806136
26	1007	9.7	35.230053785842
26	1086	9.8	35.321300284585
26	1087	9.9	35.425181807446
26	1088	10	35.542430287425
26	1128	10.1	35.673065410218
26	1129	10.2	35.816659108233
26	1208	10.3	35.962357466357
26	1209	10.4	36.110389583781
26	1210	10.5	36.261576478739
26	1211	10.6	36.415333139593
26	1251	10.7	36.572425998938
26	1330	10.8	36.733146387408
26	1331	10.9	36.896467256581
26	1332	11	37.062087584552
26	1372	11.1	37.230556246261
26	1373	11.2	37.401613500681
26	1452	11.3	37.57762195335
26	1453	11.4	37.653773715506
26	1454	11.5	37.733385684467
26	1455	11.6	37.825772131673
26	1495	11.7	37.929956340412
26	1574	11.8	38.046711129696
26	1575	11.9	38.175747710937
26	1576	12	38.317750903308
26	1616	12.1	38.472045670031
26	1668	12.2	38.638362486529
26	1771	12.3	38.818186742597
26	1772	12.4	39.01018676889
26	1824	12.5	39.213928201547
26	1825	12.6	39.4199474448
26	1877	12.7	39.629095554827
26	1980	12.8	39.840446665892
26	1981	12.9	39.956233506172
26	1982	13	40.074844525691
26	2034	13.1	40.195441441133
26	2086	13.2	40.319143259228
26	2189	13.3	40.445960604129
26	2190	13.4	40.576180508443
26	2242	13.5	40.710004329632
26	2243	13.6	40.846232113002
26	2295	13.7	40.985713979029
26	2398	13.8	41.128351818697
26	2399	13.9	41.273734359089
26	2400	14	41.422658958726
26	2452	14.1	41.574178063005
26	2504	14.2	41.700414928945
26	2607	14.3	41.771416571818
26	2608	14.4	41.843485051718
26	2660	14.5	41.917110549815
26	2661	14.6	41.992037301269
26	2713	14.7	42.068035286109
26	2828	14.8	42.145334423155
26	2829	14.9	42.224233556534
26	2830	15	42.304333974255
26	2888	15.1	42.385530736918
26	2946	15.2	42.467946020232
26	3061	15.3	42.551227254425
26	3062	15.4	42.635668207992
26	3120	15.5	42.721008910811
26	3121	15.6	42.80787779954
26	3236	15.7	42.896273395946
26	3351	15.8	42.985647517491
26	3352	15.9	43.076336331344
26	3353	16	43.168530456225
26	3411	16.1	43.261604551047
26	3469	16.2	43.356034289701
26	3584	16.3	43.451488976229
26	3585	16.4	43.547988970396
26	3643	16.5	43.645405202264
26	3644	16.6	43.743950699191
26	3759	16.7	43.843521037053
26	3874	16.8	43.923259261785
26	3875	16.9	43.937608756054
26	3876	17	43.952085266685
26	3934	17.1	43.96674260844
26	3992	17.2	43.981519034162
26	4107	17.3	43.996468236209
26	4108	17.4	44.011634316363
26	4166	17.5	44.027023104653
26	4167	17.6	44.042575433859
26	4282	17.7	44.058314149191
26	4397	17.8	44.074138729105
26	4398	17.9	44.090032564803
26	4399	18	44.105890072916
26	4457	18.1	44.113200555006
26	4515	18.2	44.046307582776
26	4630	18.3	43.979212679838
26	4631	18.4	43.912192033155
26	4689	18.5	43.844999087518
26	4690	18.6	43.778011279054
26	4805	18.7	43.710721613355
26	4920	18.8	43.643464551247
26	4921	18.9	43.576234144263
26	4922	19	43.508942494116
26	4980	19.1	43.441865876587
26	5038	19.2	43.374990934843
26	5153	19.3	43.307919478292
26	5154	19.4	43.202811508192
26	5212	19.5	43.045529856327
26	5213	19.6	42.888406044955
26	5328	19.7	42.731330555463
26	5443	19.8	42.574555300757
26	5444	19.9	42.417467989646
26	5445	20	42.260381661687
26	5503	20.1	42.103626010816
26	5573	20.2	41.946860087282
26	5712	20.3	41.790380598421
26	5782	20.4	41.633241739398
26	5921	20.5	41.476534836334
26	5922	20.6	41.320112809397
26	6061	20.7	41.163195443508
26	6200	20.8	41.005946861195
26	6201	20.9	40.848717471846
26	6202	21	40.692379168827
26	6272	21.1	40.536017242495
26	6342	21.2	40.37950247119
26	6481	21.3	40.222799411495
26	6551	21.4	40.065436630583
26	6690	21.5	39.908776763581
26	6691	21.6	39.751520581032
26	6830	21.7	39.594451504981
26	6969	21.8	39.437457975598
26	6970	21.9	39.28036648822
26	6971	22	39.123046871279
26	7041	22.1	38.965816116255
26	7111	22.2	38.808596139699
26	7250	22.3	38.652259566183
26	7320	22.4	38.495277767645
26	7459	22.5	38.337930923197
26	7460	22.6	38.181369539602
26	7599	22.7	38.024305375424
26	7750	22.8	37.867133985432
26	7751	22.9	37.710846345596
26	7752	23	37.554457830928
26	7828	23.1	37.397917356854
26	7904	23.2	37.241253848434
26	8055	23.3	37.083895255585
26	8131	23.4	36.927416768692
26	8282	23.5	36.770879960061
26	8358	23.6	36.613993822005
26	8509	23.7	36.457194699488
26	8660	23.8	36.299915287988
26	8661	23.9	36.142677593439
26	8662	24	35.985852281552
26	8738	24.1	35.82869372853
26	8814	24.2	35.670303383792
26	8965	24.3	35.510164807054
26	9041	24.4	35.347902983279
26	9192	24.5	35.184236343761
26	9268	24.6	35.018537931797
26	9419	24.7	34.850650328082
26	9570	24.8	34.680597588322
26	9571	24.9	34.508455635448
26	9572	25	34.334242688263
26	9648	25.1	34.15781030518
26	9724	25.2	33.979185744038
26	9875	25.3	33.798816763683
26	9951	25.4	33.616472398044
26	10102	25.5	33.432208703981
26	10178	25.6	33.245708893276
26	10329	25.7	33.057232598179
26	10480	25.8	32.866998698599
26	10481	25.9	32.67488171544
26	10482	26	32.480624335147
26	10558	26.1	32.284571652396
26	10634	26.2	32.088629149154
26	10785	26.3	31.892262239377
26	10861	26.4	31.696144321561
26	11012	26.5	31.499829137089
26	11088	26.6	31.303690043039
26	11239	26.7	31.10745762052
26	11390	26.8	30.911485192955
26	11391	26.9	30.715336819035
26	11392	27	30.518941032059
26	11468	27.1	30.322490995881
26	11544	27.2	30.126283763231
26	11695	27.3	29.930050316025
26	11771	27.4	29.734025809397
26	11922	27.5	29.537799489339
26	11998	27.6	29.341493576784
26	12149	27.7	29.145502366021
26	12300	27.8	28.949203657317
26	12301	27.9	28.752910546602
26	12302	28	28.556915437569
26	12378	28.1	28.360434344325
26	12454	28.2	28.164201087535
26	12605	28.3	27.967903260965
26	12681	28.4	27.771571004346
26	12832	28.5	27.565654687394
26	12908	28.6	27.349254302756
26	13059	28.7	27.123122857341
26	13210	28.8	26.889238689632
26	13211	28.9	26.674244221329
26	13212	29	26.449604627184
26	13288	29.1	26.214622289252
26	13364	29.2	25.970069622847
26	13515	29.3	25.71497372372
26	13591	29.4	25.450539426013
26	13742	29.5	25.18600738635
26	13818	29.6	24.921857891349
26	13969	29.7	24.657017599196
26	14120	29.8	24.345037770518
26	14121	29.9	24.19470124827
26	14122	30	24.142389209214
26	14198	30.1	24.089869876074
26	14274	30.2	24.037636401956
26	14425	30.3	23.97521201403
26	14495	30.4	23.902845275303
26	14634	30.5	23.820515234786
26	14704	30.6	23.728204561742
26	14774	30.7	23.625958049851
26	14913	30.8	23.513707303105
26	14914	30.9	23.391201446225
26	14915	31	23.258865530236
26	14985	31.1	23.116486116724
26	15055	31.2	22.96426146326
26	15194	31.3	22.811825158954
26	15264	31.4	22.659413175473
26	15403	31.5	22.507201495756
26	15473	31.6	22.467676392014
26	15543	31.7	22.446836352459
26	15682	31.8	22.436008763564
26	15683	31.9	22.435223905813
26	15684	32	22.444337130895
26	15754	32.1	22.463374593874
26	15824	32.2	22.492344845147
26	15963	32.3	22.521287498592
26	16033	32.4	22.560445360941
26	16172	32.5	22.609551877335
26	16242	32.6	22.668827373654
26	16312	32.7	22.737707760779
26	16451	32.8	22.816977434607
26	16452	32.9	22.89585899429
26	16453	33	22.974911288377
26	16523	33.1	23.191511880788
26	16593	33.2	23.441500821292
26	16732	33.3	23.690966845777
26	16802	33.4	23.940813004963
26	16941	33.5	24.189972858381
26	17011	33.6	24.440176394233
26	17081	33.7	24.690210527309
26	17220	33.8	24.939820254229
26	17221	33.9	25.188876064217
26	17222	34	25.438926576034
26	17292	34.1	25.688521888628
26	17362	34.2	25.93446606368
26	17501	34.3	26.175199133036
26	17571	34.4	26.415843070351
26	17710	34.5	26.656954573876
26	17780	34.6	26.897054242091
26	17850	34.7	27.13690607299
26	17989	34.8	27.376843944818
25	763	8.7	459.56143453489
25	842	8.8	459.56143453489
25	843	8.9	459.53682688789
25	844	9	459.4889402291
25	884	9.1	459.41697660289
25	885	9.2	459.31946662708
25	964	9.3	459.20365430435
25	965	9.4	459.06561968772
25	966	9.5	458.90898164843
25	967	9.6	458.73186916979
25	1007	9.7	458.53267753212
25	1086	9.8	458.31571736763
25	1087	9.9	458.08080813933
25	1088	10	457.82276888084
25	1128	10.1	457.54146024754
25	1129	10.2	457.23991230339
25	1208	10.3	456.92346658406
25	1209	10.4	456.59050141761
25	1210	10.5	456.23520525043
25	1211	10.6	455.86171907032
25	1251	10.7	455.46461770653
25	1330	10.8	455.04183898366
25	1331	10.9	454.600652834
25	1332	11	454.14319003234
25	1372	11.1	453.6655653834
25	1373	11.2	453.16961745648
25	1452	11.3	452.65879268558
25	1453	11.4	452.12008382704
25	1454	11.5	451.55689695243
25	1455	11.6	450.97478631006
25	1495	11.7	450.38066133879
25	1574	11.8	449.76905500234
25	1575	11.9	449.142010234
25	1576	12	448.49468252137
25	1616	12.1	447.83184717474
25	1668	12.2	447.15541085094
[...]
46	9572	25	44.733204674104
46	9648	25.1	44.859018989851
46	9724	25.2	44.984344160569
46	9875	25.3	45.108872750742
46	9951	25.4	45.233300282106
46	10102	25.5	45.358526529686
46	10178	25.6	45.483023271006
46	10329	25.7	45.587017788844
46	10480	25.8	45.643678749853
46	10481	25.9	45.700145976307
46	10482	26	45.756270102181
46	10558	26.1	45.812391420242
46	10634	26.2	45.868804122879
46	10785	26.3	45.924874788714
46	10861	26.4	45.980957794628
46	11012	26.5	46.037197797134
46	11088	26.6	46.093178095166
46	11239	26.7	46.149381516703
46	11390	26.8	46.205382006871
46	11391	26.9	46.261438100265
46	11392	27	46.317538625483
46	11468	27.1	46.37357203847
46	11544	27.2	46.429902377376
46	11695	27.3	46.486103573765
46	11771	27.4	46.542837131067
46	11922	27.5	46.599035611437
46	11998	27.6	46.655329522594
46	12149	27.7	46.711830355679
46	12300	27.8	46.768172764199
46	12301	27.9	46.824513908305
46	12302	28	46.881223356244
46	12378	28.1	46.937323401717
46	12454	28.2	46.993868640538
46	12605	28.3	47.050013518107
46	12681	28.4	47.106548703497
46	12832	28.5	47.163121541353
46	12908	28.6	47.219113299949
46	13059	28.7	47.275523214738
46	13210	28.8	47.332191214172
46	13211	28.9	47.388330118487
46	13212	29	47.444358822896
46	13288	29.1	47.500848463272
46	13364	29.2	47.556939643297
46	13515	29.3	47.613045443382
46	13591	29.4	47.66923334105
46	13742	29.5	47.725793115019
46	13818	29.6	47.781838958487
46	13969	29.7	47.822532729031
46	14120	29.8	47.830408618612
46	14121	29.9	47.838252133522
46	14122	30	47.846055736557
46	14198	30.1	47.853947073352
46	14274	30.2	47.861798509089
46	14425	30.3	47.869624323964
46	14495	30.4	47.877510456873
46	14634	30.5	47.885386123959
46	14704	30.6	47.893285238983
46	14774	30.7	47.901186222914
46	14913	30.8	47.909069971742
46	14914	30.9	47.916945398122
46	14915	31	47.924779008663
46	14985	31.1	47.932592744214
46	15055	31.2	47.940385362612
46	15194	31.3	47.948222322756
46	15264	31.4	47.956105740472
46	15403	31.5	47.963993854408
46	15473	31.6	47.971801778127
46	15543	31.7	47.97960163173
46	15682	31.8	47.98746527064
46	15683	31.9	47.995359009839
46	15684	32	48.003245265588
46	15754	32.1	48.011111568848
46	15824	32.2	48.019004409299
46	15963	32.3	47.99081460428
46	16033	32.4	47.957228462284
46	16172	32.5	47.923777866887
46	16242	32.6	47.890394796354
46	16312	32.7	47.856846685418
46	16451	32.8	47.823227700629
46	16452	32.9	47.78958846189
46	16453	33	47.75621224778
46	16523	33.1	47.722387719754
46	16593	33.2	47.68872821006
46	16732	33.3	47.655034896308
46	16802	33.4	47.621587203492
46	16941	33.5	47.587769502394
46	17011	33.6	47.554381145987
46	17081	33.7	47.520544828596
46	17220	33.8	47.486845479783
46	17221	33.9	47.453217189694
46	17222	34	47.419388467815
46	17292	34.1	47.385668402627
46	17362	34.2	47.351980853371
46	17501	34.3	47.318150435238
46	17571	34.4	47.284616155653
46	17710	34.5	47.250999945906
46	17780	34.6	47.217550665308
46	17850	34.7	47.183870679601
46	17989	34.8	47.137205430268
46	17990	34.9	47.059578537049
46	17991	35	46.98179545791
46	18055	35.1	46.90387968384
46	18119	35.2	46.826069128949
46	18183	35.3	46.747882864515
46	18247	35.4	46.66964948688
46	18374	35.5	46.591785554656
46	18438	35.6	46.514200113457
46	18502	35.7	46.435571624456
46	18629	35.8	46.357196166244
46	18630	35.9	46.278666027276
46	18631	36	46.200169537879
46	18695	36.1	46.122136967425
46	18759	36.2	46.044400477276
46	18817	36.3	45.966038255883
46	18875	36.4	45.887687133446
46	18990	36.5	45.809028521596
46	19048	36.6	45.73040154962
46	19106	36.7	45.652757267155
46	19164	36.8	45.574218504901
46	19165	36.9	45.49642075221
46	19166	37	45.418357674864
46	19218	37.1	45.339837219528
46	19270	37.2	45.261683288872
46	19322	37.3	45.183274757194
46	19374	37.4	45.104714002023
46	19477	37.5	45.026524538903
46	19529	37.6	44.948040446784
46	19581	37.7	44.870402735706
46	19582	37.8	44.792793720778
46	19583	37.9	44.714527381455
46	19584	38	44.636846149036
46	19636	38.1	44.558200681955
46	19688	38.2	44.479695202568
46	19740	38.3	44.402001281442
46	19792	38.4	44.323733013794
46	19895	38.5	44.245613484982
46	19947	38.6	44.167443905802
46	19999	38.7	44.089559063702
46	20000	38.8	44.011249339223
46	20001	38.9	43.933083010259
46	20002	39	43.855273861168
46	20054	39.1	43.776755143044
46	20106	39.2	43.698217199988
46	20158	39.3	43.620408435855
46	20210	39.4	43.541826702531
46	20313	39.5	43.464144620498
46	20365	39.6	43.386566454359
46	20417	39.7	43.308652630082
46	20418	39.8	43.230495017355
46	20419	39.9	43.152399623204
46	20420	40	43.074822865249
46	20472	40.1	42.996264811051
46	20524	40.2	42.917930653178
46	20576	40.3	42.840318831505
46	20628	40.4	42.762078710506
46	20731	40.5	42.684452937342
46	20783	40.6	42.606133537745
46	20835	40.7	42.527688020349
46	20836	40.8	42.449391661663
46	20837	40.9	42.37108334782
46	20838	41	42.292467204844
46	20890	41.1	42.214328196907
46	20942	41.2	42.136020349135
46	20994	41.3	42.058263456761
46	21046	41.4	41.98071433437
46	21149	41.5	41.90239977909
46	21201	41.6	41.823861877977
46	21253	41.7	41.745327444831
46	21254	41.8	41.666897744565
46	21255	41.9	41.588628969721
46	21256	42	41.51092768494
46	21302	42.1	41.433299873912
46	21348	42.2	41.35512677054
46	21394	42.3	41.277020267718
46	21440	42.4	41.198569478774
46	21531	42.5	41.119936975085
46	21577	42.6	41.042149205558
46	21578	42.7	40.963598046473
46	21579	42.8	40.885455821699
46	21580	42.9	40.807002871312
46	21581	43	40.728933880565
46	21627	43.1	40.650453213506
46	21673	43.2	40.572112395102
46	21719	43.3	40.494518934346
46	21765	43.4	40.416903119442
46	21844	43.5	40.339013145629
46	21884	43.6	40.260848261818
46	21885	43.7	40.182467869281
46	21886	43.8	40.104620132624
46	21887	43.9	40.026204681591
46	21888	44	39.948295510676
46	21889	44.1	39.870122455513
46	21923	44.2	39.790302193224
46	21924	44.3	39.708430499137
46	21958	44.4	39.625189401935
46	22025	44.5	39.539800007311
46	22059	44.6	39.452672683342
46	22060	44.7	39.363603328359
46	22061	44.8	39.272380877028
46	22062	44.9	39.17985782765
46	22063	45	39.085289423073
46	22064	45.1	38.988981444799
46	22098	45.2	38.891096960809
46	22099	45.3	38.791246008052
46	22133	45.4	38.689667295786
46	22200	45.5	38.586418560705
46	22234	45.6	38.481402465114
46	22235	45.7	38.374526209976
46	22236	45.8	38.265668041061
46	22237	45.9	38.155566812123
46	22238	46	38.043771708072
46	22239	46.1	37.930500766928
46	22273	46.2	37.815563832453
46	22274	46.3	37.698679123617
46	22308	46.4	37.580065497344
46	22375	46.5	37.460114533203
46	22409	46.6	37.338886211014
46	22410	46.7	37.216454174408
46	22411	46.8	37.091994647147
46	22412	46.9	36.965654569197
46	22413	47	36.83717680273
46	22414	47.1	36.707549256737
46	22448	47.2	36.576365947751
46	22449	47.3	36.443710816579
46	22483	47.4	36.309272325168
46	22550	47.5	36.172837747894
46	22584	47.6	36.034570365524
46	22585	47.7	35.89435819314
46	22586	47.8	35.75247819712
46	22587	47.9	35.609252916198
46	22588	48	35.464700036278
46	22589	48.1	35.318199561475
46	22623	48.2	35.169628031888
46	22624	48.3	35.01951021863
46	22658	48.4	34.867528768811
46	22725	48.5	34.713479053874
46	22759	48.6	34.557841603142
46	22760	48.7	34.400056917483
46	22761	48.8	34.240105636883
46	22762	48.9	34.077892807511
46	22763	49	33.91364030741
46	22764	49.1	33.747657482556
46	22798	49.2	33.579584047285
46	22799	49.3	33.40931349442
46	22833	49.4	33.237327978475
46	22900	49.5	33.064094648676
46	22934	49.6	32.888599144057
46	22935	49.7	32.711087849301
46	22936	49.8	32.532326664127
46	22937	49.9	32.352011748993
46	22938	50	32.170366345761
46	22939	50.1	31.98748014104
46	22973	50.2	31.802567530529
46	22974	50.3	31.616220977703
46	23008	50.4	31.427896106251
46	23075	50.5	31.238363562845
46	23103	50.6	31.0476446422
46	23104	50.7	30.8603264843
46	23105	50.8	30.696475358525
46	23106	50.9	30.530809170561
46	23107	51	30.36400797936
46	23108	51.1	30.195854063379
46	23109	51.2	30.025833995632
46	23110	51.3	29.854092954592
46	23132	51.4	29.681013508232
46	23154	51.5	29.506614819475
46	23176	51.6	29.330765470613
46	23177	51.7	29.153108490127
46	23178	51.8	29.025611839015
46	23179	51.9	28.967642441254
46	23180	52	28.909651038568
46	23181	52.1	28.851441848884
46	23182	52.2	28.793484260658
46	23183	52.3	28.735281912122
46	23199	52.4	28.677211615039
46	23215	52.5	28.619267016856
46	23216	52.6	28.561064861072
46	23217	52.7	28.503047826546
46	23218	52.8	28.445103670539
46	23219	52.9	28.386933269237
46	23220	53	28.328727158196
46	23221	53.1	28.270786626553
46	23222	53.2	28.212805835166
46	23223	53.3	28.267331478182
46	23239	53.4	28.353997607635
46	23255	53.5	28.440520194106
46	23256	53.6	28.526828906106
46	23257	53.7	28.613288146224
46	23258	53.8	28.699719532976
46	23259	53.9	28.786093480132
46	23260	54	28.8726731882
46	23261	54.1	28.958978322117
46	23262	54.2	29.045304181262
46	23263	54.3	29.131710640453
46	23279	54.4	29.218349713256
46	23295	54.5	29.304973853445
46	23296	54.6	29.438570780747
46	23297	54.7	29.713893558743
46	23298	54.8	29.988764625742
46	23299	54.9	30.263484920344
46	23300	55	30.538228266329
46	23301	55.1	30.813070367873
46	23302	55.2	31.088097148734
46	23303	55.3	31.361998974113
46	23304	55.4	31.636007639374
46	23314	55.5	31.910438064546
46	23315	55.6	32.185142812575
46	23316	55.7	32.449209305921
46	23317	55.8	32.71236765145
46	23318	55.9	32.97658028567
46	23319	56	33.240713160658
46	23320	56.1	33.50415810982
46	23321	56.2	33.767990633551
45	5503	20.1	460.45902203295
45	5573	20.2	460.45902203295
45	5712	20.3	460.43401326707
45	5782	20.4	460.38342851823
45	5921	20.5	460.3079573996
45	5922	20.6	460.20815764652
45	6061	20.7	460.0830739813
45	6200	20.8	459.93794932472
45	6201	20.9	459.77353792386
45	6202	21	459.59161214529
45	6272	21.1	459.39178656562
45	6342	21.2	459.16827813154
45	6481	21.3	458.91952336251
45	6551	21.4	458.65272481945
45	6690	21.5	458.36242215131
45	6691	21.6	458.04653982677
45	6830	21.7	457.70543876008
45	6969	21.8	457.35100426011
45	6970	21.9	456.98041207518
45	6971	22	456.59245264571
45	7041	22.1	456.181615588
45	7111	22.2	455.75087472374
45	7250	22.3	455.29766709465
45	7320	22.4	454.8237431918
45	7459	22.5	454.3335283093
45	7460	22.6	453.82068344856
45	7599	22.7	453.2875527924
45	7750	22.8	452.73963736868
45	7751	22.9	452.17064929499
45	7752	23	451.58114070186
45	7828	23.1	450.96754090826
45	7904	23.2	450.33956640964
45	8055	23.3	449.6952156681
45	8131	23.4	449.03586506314
45	8282	23.5	448.35546992397
45	8358	23.6	447.6553849189
45	8509	23.7	446.94204567304
45	8660	23.8	446.20814234513
45	8661	23.9	445.45209274983
45	8662	24	444.67053164008
45	8738	24.1	443.86351292354
45	8814	24.2	443.03630785502
45	8965	24.3	442.18639619806
45	9041	24.4	441.31336383093
45	9192	24.5	440.43090962998
45	9268	24.6	439.54140164654
45	9419	24.7	438.66221511614
45	9570	24.8	437.77961364227
45	9571	24.9	436.89566060998
45	9572	25	436.00602603658
45	9648	25.1	435.11653640309
45	9724	25.2	434.23050495662
45	9875	25.3	433.35010522329
45	9951	25.4	432.47041996164
45	10102	25.5	431.58508788793
45	10178	25.6	430.70491332155
45	10329	25.7	429.82051385933
45	10480	25.8	428.92325606344
45	10481	25.9	428.02906616185
45	10482	26	427.14030944857
45	10558	26.1	426.25159719857
45	10634	26.2	425.35827071192
45	10785	26.3	424.47036056805
45	10861	26.4	423.58225501218
45	11012	26.5	422.69166332806
45	11088	26.6	421.80518420854
45	11239	26.7	420.91517180438
45	11390	26.8	420.02837293119
45	11391	26.9	419.14069355002
45	11392	27	418.25231056623
45	11468	27.1	417.36499034192
45	11544	27.2	416.4729681307
45	11695	27.3	415.582990963
45	11771	27.4	414.68458356448
45	11922	27.5	413.79464940644
45	11998	27.6	412.90320404888
45	12149	27.7	412.00848196763
45	12300	27.8	411.11626862738
45	12301	27.9	410.22407530982
45	12302	28	409.32604969645
45	12378	28.1	408.4376743097
45	12454	28.2	407.54224903894
45	12605	28.3	406.65316371105
45	12681	28.4	405.75789764195
45	12832	28.5	404.86203532515
45	12908	28.6	403.97537472125
45	13059	28.7	403.08209238172
45	13210	28.8	402.18472312847
45	13211	28.9	401.29573239036
45	13212	29	400.40848672898
45	13288	29.1	399.5139418905
45	13364	29.2	398.62570689304
45	13515	29.3	397.7372403788
45	13591	29.4	396.84747380372
45	13742	29.5	395.95181836083
45	13818	29.6	395.06430129294
45	13969	29.7	394.17164879988
45	14120	29.8	393.27497877105
45	14121	29.9	392.38199459854
45	14122	30	391.49355439302
45	14198	30.1	390.59512569889
45	14274	30.2	389.70123974024
45	14425	30.3	388.81027071667
45	14495	30.4	387.91243448496
45	14634	30.5	387.01578978725
45	14704	30.6	386.11647554183
45	14774	30.7	385.21694852126
45	14913	30.8	384.31938371713
45	14914	30.9	383.42276642384
45	14915	31	382.5309098637
45	14985	31.1	381.64131607128
45	15055	31.2	380.75412646659
45	15194	31.3	379.8618885542
45	15264	31.4	378.96436144732
45	15403	31.5	378.06629967569
45	15473	31.6	377.17736756025
45	15543	31.7	376.28935422759
45	15682	31.8	375.39407893761
45	15683	31.9	374.49537672983
45	15684	32	373.59752651279
45	15754	32.1	372.70194788669
45	15824	32.2	371.80334800127
45	15963	32.3	370.91421145795
45	16033	32.4	370.02144493931
45	16172	32.5	369.13228143842
45	16242	32.6	368.24491284261
45	16312	32.7	367.35315724261
45	16451	32.8	366.45951771672
45	16452	32.9	365.56533981256
45	16453	33	364.67815347006
45	16523	33.1	363.77905031812
45	16593	33.2	362.88433358368
45	16732	33.3	361.98871829024
45	16802	33.4	361.09963194399
45	16941	33.5	360.2007102613
45	17011	33.6	359.3132011596
45	17081	33.7	358.41378462988
45	17220	33.8	357.51800891608
45	17221	33.9	356.62412204234
45	17222	34	355.72490741191
45	17292	34.1	354.82858102797
45	17362	34.2	353.93311896285
45	17501	34.3	353.03385924365
45	17571	34.4	352.14247130027
45	17710	34.5	351.24890553884
45	17780	34.6	350.35977698714
45	17850	34.7	349.46451597171
45	17989	34.8	348.57017973837
45	17990	34.9	347.68536199698
45	17991	35	346.79876399535
45	18055	35.1	345.91065349173
45	18119	35.2	345.02374231213
45	18183	35.3	344.13254866732
45	18247	35.4	343.2408180102
45	18374	35.5	342.35329841759
45	18438	35.6	341.46895316044
45	18502	35.7	340.57271888954
45	18629	35.8	339.67936874968
45	18630	35.9	338.78425550592
45	18631	36	337.88952581142
45	18695	36.1	337.00008402289
45	18759	36.2	336.11401705841
45	18817	36.3	335.22081779631
45	18875	36.4	334.32774504388
45	18990	36.5	333.43116742251
45	19048	36.6	332.53495044318
45	19106	36.7	331.64993449326
45	19164	36.8	330.75472295835
45	19165	36.9	329.86795770257
45	19166	37	328.97816818611
45	19218	37.1	328.08316531968
45	19270	37.2	327.19234022627
45	19322	37.3	326.29861310378
45	19374	37.4	325.40315088613
45	19477	37.5	324.51192078161
45	19529	37.6	323.6173323955
45	19581	37.7	322.73239134848
45	19582	37.8	321.84777738994
45	19583	37.9	320.95567102431
45	19584	38	320.07023390623
45	19636	38.1	319.1738061134
45	19688	38.2	318.27897394795
45	19740	38.3	317.39339219967
45	19792	38.4	316.50126385432
45	19895	38.5	315.61083088484
45	19947	38.6	314.71982742423
45	19999	38.7	313.83206949373
45	20000	38.8	312.93946860931
45	20001	38.9	312.04850219578
45	20002	39	311.16160703995
45	20054	39.1	310.26662397486
45	20106	39.2	309.37142177746
45	20158	39.3	308.48453100952
45	20210	39.4	307.58882967574
45	20313	39.5	306.70338287348
45	20365	39.6	305.81912053993
45	20417	39.7	304.93103226073
45	20418	39.8	304.04016519782
45	20419	39.9	303.15000732341
45	20420	40	302.26576104083
45	20472	40.1	301.37032960978
45	20524	40.2	300.47745022523
45	20576	40.3	299.59280427445
45	20628	40.4	298.70099675419
45	20731	40.5	297.81619177957
45	20783	40.6	296.92348061488
45	20835	40.7	296.02933191659
45	20836	40.8	295.13688338004
45	20837	40.9	294.24429857453
45	20838	41	293.34820502783
45	20890	41.1	292.45755002865
45	20942	41.2	291.56497053558
45	20994	41.3	290.67867101959
45	21046	41.4	289.79473973657
45	21149	41.5	288.90208378905
45	21201	41.6	288.00688206973
45	21253	41.7	287.11171987946
45	21254	41.8	286.2177514702
45	21255	41.9	285.32561734367
45	21256	42	284.43995166195
45	21302	42.1	283.55512345907
45	21348	42.2	282.66407982852
45	21394	42.3	281.7737953337
45	21440	42.4	280.87958654852
45	21531	42.5	279.98330651684
45	21577	42.6	279.09665505257
45	21578	42.7	278.20130221437
45	21579	42.8	277.31061054858
45	21580	42.9	276.41637712653
45	21581	43	275.5265202071
45	21627	43.1	274.631970861
45	21673	43.2	273.73901555745
45	21719	43.3	272.85457889065
45	21765	43.4	271.96988742368
45	21844	43.5	271.08207100018
45	21884	43.6	270.19112105898
45	21885	43.7	269.297714676
45	21886	43.8	268.41037968597
45	21887	43.9	267.51657369431
45	21888	44	266.62853845572
45	21889	44.1	265.73749537467
45	21923	44.2	264.82767686633
45	21924	44.3	263.89447544037
45	21958	44.4	262.94566509176
45	22025	44.5	261.97236771818
45	22059	44.6	260.97926083461
45	22060	44.7	259.96401802075
45	22061	44.8	258.92423348214
45	22062	44.9	257.86962428446
45	22063	45	256.79170143228
45	22064	45.1	255.69395032723
45	22098	45.2	254.57822967361
45	22099	45.3	253.44009453991
45	22133	45.4	252.28226581546
45	22200	45.5	251.10540160273
45	22234	45.6	249.90839241356
45	22235	45.7	248.69018049296
45	22236	45.8	247.44937804479
45	22237	45.9	246.19440677553
45	22238	46	244.92012814139
45	22239	46.1	243.62902741391
45	22273	46.2	242.31893712758
45	22274	46.3	240.98664544637
45	22308	46.4	239.63464697595
45	22375	46.5	238.26740507348
45	22409	46.6	236.88560340936
45	22410	46.7	235.49008139875
45	22411	46.8	234.0714493598
45	22412	46.9	232.63138216425
45	22413	47	231.16694886763
45	22414	47.1	229.68940999276
45	22448	47.2	228.19413800196
45	22449	47.3	226.68208968109
45	22483	47.4	225.14971401343
45	22550	47.5	223.59458627994
45	22584	47.6	222.01856761035
45	22585	47.7	220.42038156247
45	22586	47.8	218.80318509332
45	22587	47.9	217.17065460911
45	22588	48	215.52299169982
45	22589	48.1	213.85312944137
45	22623	48.2	212.15966059583
45	22624	48.3	210.4496601908
45	22658	48.4	208.71916050744
45	22725	48.5	206.96511102812
45	22759	48.6	205.19298318269
45	22760	48.7	203.39640637086
45	22761	48.8	201.57516015455
45	22762	48.9	199.72816336514
45	22763	49	197.85794236281
45	22764	49.1	195.96801944
45	22798	49.2	194.05429229196
45	22799	49.3	192.11554820069
45	22833	49.4	190.15727710088
45	22900	49.5	188.1847980732
45	22934	49.6	186.18656134406
45	22935	49.7	184.16537231254
45	22936	49.8	182.12995170884
45	22937	49.9	180.07683993818
45	22938	50	178.00857888953
45	22939	50.1	175.92618975757
45	22973	50.2	173.82072745069
45	22974	50.3	171.69893790963
45	23008	50.4	169.55462272638
45	23075	50.5	167.39655668121
45	23103	50.6	165.22498224116
45	23104	50.7	163.02731103966
45	23105	50.8	160.80374440346
45	23106	50.9	158.55554618963
45	23107	51	156.29194524164
45	23108	51.1	154.00998693618
45	23109	51.2	151.70270373421
45	23110	51.3	149.37206580226
45	23132	51.4	147.02326483726
45	23154	51.5	144.65656089256
45	23176	51.6	142.27017054414
45	23177	51.7	139.85924945568
45	23178	51.8	137.42766349147
45	23179	51.9	134.97385298391
45	23180	52	132.5191110208
45	23181	52.1	130.05515026217
45	23182	52.2	127.60183964525
45	23183	52.3	125.13816846839
45	23199	52.4	122.6800869519
45	23215	52.5	120.22732619586
45	23216	52.6	117.76366317808
45	23217	52.7	115.30783623426
45	23218	52.8	112.85509419529
45	23219	52.9	110.39277532606
45	23220	53	107.92894488459
45	23221	53.1	105.4763562628
45	23222	53.2	103.02206346972
45	23223	53.3	100.56709544037
45	23239	53.4	98.104888480528
45	23255	53.5	95.646759613608
45	23256	53.6	93.194706975247
45	23257	53.7	90.738377794457
45	23258	53.8	88.282839934942
45	23259	53.9	85.828933949073
45	23260	54	83.369182242931
45	23261	54.1	80.917231258832
45	23262	54.2	78.464691465678
45	23263	54.3	76.009861804569
45	23279	54.4	73.548423531081
45	23295	54.5	71.087409496987
45	23296	54.6	68.62988966106
45	23297	54.7	66.180197947301
45	23298	54.8	63.734525344107
45	23299	54.9	61.290194242308
45	23300	55	58.845658040221
45	23301	55.1	56.400243157939
45	23302	55.2	53.953185086531
45	23303	55.3	51.516136336333
45	23304	55.4	49.07813697546
45	23314	55.5	46.636384994605
45	23315	55.6	44.192192218856
45	23316	55.7	41.750495937212
45	23317	55.8	39.311721566763
45	23318	55.9	36.863176758547
45	23319	56	34.415371105186
45	23320	56.1	31.973940685235
45	23321	56.2	29.528918485115

