version 2
run General-0-20240730-05:30:34-18659
attr configname General
attr datetime 20240730-05:30:34
attr experiment General
attr inifile omnetpp.ini
attr iterationvars ""
attr iterationvarsf ""
attr measurement ""
attr network HighWayScenario
attr processid 18659
attr repetition 0
attr replication #0
attr resultdir results
attr runnumber 0
attr seedset 0
param **.debug false
param **.coreDebug false
param *.playgroundSizeX 800m
param *.playgroundSizeY 800m
param *.playgroundSizeZ 50m
param *.annotations.draw true
param *.manager.updateInterval 0.1s
param *.manager.host "\"localhost\""
param *.manager.port 9999
param *.manager.autoShutdown false
param *.manager.launchConfig "xmldoc(\"HighWay.launchd.xml\")"
param *.connectionManager.sendDirect true
param *.connectionManager.maxInterfDist 420m
param *.connectionManager.drawMaxIntfDist true
param *.**.nic.mac1609_4.useServiceChannel false
param *.**.nic.mac1609_4.txPower 20mW
param *.**.nic.mac1609_4.bitrate 6Mbps
param *.**.nic.phy80211p.minPowerLevel -89dBm
param *.**.nic.phy80211p.useNoiseFloor true
param *.**.nic.phy80211p.noiseFloor -98dBm
param *.**.nic.phy80211p.decider "xmldoc(\"config.xml\")"
param *.**.nic.phy80211p.analogueModels "xmldoc(\"config.xml\")"
param *.**.nic.phy80211p.usePropagationDelay true
param *.**.nic.phy80211p.antenna "xmldoc(\"antenna.xml\", \"/root/Antenna[@id='monopole']\")"
param *.node[*].nic.phy80211p.antennaOffsetY "0 m"
param *.node[*].nic.phy80211p.antennaOffsetZ "1.895 m"
param *.node[*].applType "\"JosephVeinsApp\""
param *.node[*].appl.headerLength "80 bit"
param *.node[*].appl.sendBeacons true
param *.node[*].appl.dataOnSch false
param *.node[*].appl.beaconInterval 1s
param *.node[*].appl.serialNumber "\"HighWayScenario-ITSG5\""
param *.node[*].appl.savePath "\"../../../f2md-results/\""
param *.node[*].appl.UseAttacksServer false
param *.node[*].appl.MixLocalAttacks false
param *.node[*].appl.RandomLocalMix false
param *.node[*].appl.LOCAL_ATTACKER_PROB 0.3
param *.node[*].appl.LOCAL_ATTACK_TYPE 21
param *.node[*].appl.GLOBAL_ATTACKER_PROB 0.0
param *.node[*].appl.GLOBAL_ATTACK_TYPE 20
param *.node[*].appl.EnablePC false
param *.node[*].appl.PC_TYPE 5
param *.node[*].appl.EnableV1 true
param *.node[*].appl.EnableV2 true
param *.node[*].appl.SaveStatsV1 true
param *.node[*].appl.SaveStatsV2 true
param *.node[*].appl.checksVersionV1 2
param *.node[*].appl.checksVersionV2 2
param *.node[*].appl.appTypeV1 3
param *.node[*].appl.appTypeV2 2
param *.node[*].appl.appl.REPORT_VERSION 2
param *.node[*].appl.sendReportsV1 false
param *.node[*].appl.sendReportsV2 false
param *.node[*].appl.maHostV1 "\"localhost\""
param *.node[*].appl.maHostV2 "\"localhost\""
param *.node[*].appl.maPortV1 9980
param *.node[*].appl.maPortV2 9981
param *.node[*].appl.writeSelfMsg false
param *.node[*].appl.writeListSelfMsg false
param *.node[*].appl.writeBsmsV1 false
param *.node[*].appl.writeBsmsV2 false
param *.node[*].appl.writeListBsmsV1 false
param *.node[*].appl.writeListBsmsV2 false
param *.node[*].appl.writeReportsV1 false
param *.node[*].appl.writeReportsV2 false
param *.node[*].appl.writeListReportsV1 false
param *.node[*].appl.writeListReportsV2 false
param *.node[*].appl.writeVeReMi false
param *.node[*].appl.VeReMiSliceTime 3600
param *.node[*].appl.enableMTA true
param *.node[*].appl.selectAttacker false
param *.node[*].appl.veremiConf true
param *.node[*].appl.randomConf false
param *.node[*].appl.variableConf false
param *.node[*].appl.confPos 10.0
param *.node[*].appl.confSpd 0.05
param *.node[*].appl.confHea 20.0
param *.node[*].appl.confAcc 0.01
param *.node[*].appl.confPrec 100.0
param *.node[*].appl.minConf 0.20
param *.node[*].appl.SAVE_PERIOD 10
param *.node[*].appl.PRINT_PERIOD 60
param *.node[*].appl.START_SAVE 0
param *.node[*].appl.START_ATTACK 10
param *.node[*].appl.enableVarThreV1 false
param *.node[*].appl.enableVarThreV2 false
param *.node[*].appl.MAX_PROXIMITY_RANGE_L 30
param *.node[*].appl.MAX_PROXIMITY_RANGE_W 3
param *.node[*].appl.MAX_PROXIMITY_DISTANCE 2
param *.node[*].appl.MAX_CONFIDENCE_RANGE 10
param *.node[*].appl.MAX_PLAUSIBLE_RANGE 420
param *.node[*].appl.MAX_TIME_DELTA 3.1
param *.node[*].appl.MAX_DELTA_INTER 2.0
param *.node[*].appl.MAX_SA_RANGE 420
param *.node[*].appl.MAX_SA_TIME 2.1
param *.node[*].appl.MAX_KALMAN_TIME 3.1
param *.node[*].appl.KALMAN_POS_RANGE 1.0
param *.node[*].appl.KALMAN_SPEED_RANGE 4.0
param *.node[*].appl.KALMAN_MIN_POS_RANGE 4.0
param *.node[*].appl.KALMAN_MIN_SPEED_RANGE 1.0
param *.node[*].appl.MIN_MAX_SPEED 40
param *.node[*].appl.MIN_MAX_ACCEL 3
param *.node[*].appl.MIN_MAX_DECEL 4.5
param *.node[*].appl.MAX_MGT_RNG 4
param *.node[*].appl.MAX_MGT_RNG_DOWN 6.2
param *.node[*].appl.MAX_MGT_RNG_UP 2.1
param *.node[*].appl.MAX_BEACON_FREQUENCY 0.99
param *.node[*].appl.MAX_DISTANCE_FROM_ROUTE 2
param *.node[*].appl.MAX_NON_ROUTE_SPEED -1
param *.node[*].appl.MAX_HEADING_CHANGE 90
param *.node[*].appl.DELTA_BSM_TIME 5
param *.node[*].appl.DELTA_REPORT_TIME 5
param *.node[*].appl.POS_HEADING_TIME 1.1
param *.node[*].appl.MAX_TARGET_TIME 2
param *.node[*].appl.MAX_ACCUSED_TIME 2
param *.node[*].appl.parVar 0.55
param *.node[*].appl.RandomPosOffsetX 70.0
param *.node[*].appl.RandomPosOffsetY 70.0
param *.node[*].appl.RandomSpeedX 40.0
param *.node[*].appl.RandomSpeedY 40.0
param *.node[*].appl.RandomSpeedOffsetX 7.0
param *.node[*].appl.RandomSpeedOffsetY 7.0
param *.node[*].appl.RandomAccelX 2.0
param *.node[*].appl.RandomAccelY 2.0
param *.node[*].appl.StopProb 0.05
param *.node[*].appl.StaleMessages_Buffer 60
param *.node[*].appl.DosMultipleFreq 4
param *.node[*].appl.DosMultipleFreqSybil 2
param *.node[*].appl.ReplaySeqNum 6
param *.node[*].appl.SybilVehNumber 5
param *.node[*].appl.SelfSybil false
param *.node[*].appl.SybilDistanceX 5
param *.node[*].appl.SybilDistanceY 2
param *.node[*].appl.Period_Change_Time 240
param *.node[*].appl.Tolerance_Buffer 10
param *.node[*].appl.Period_Change_Distance 80
param *.node[*].appl.Random_Change_Chance 0.1
param *.node[*].appl.InitialHistory 5
param *.node[*].appl.CollectionPeriod 10
param *.node[*].appl.UntolerancePeriod 5
param *.node[*].veinsmobilityType.debug false
param *.node[*].veinsmobility.x 0
param *.node[*].veinsmobility.y 0
param *.node[*].veinsmobility.z 1.895
param *.node[*].veinsmobility.setHostSpeed true
param *.node[*].veinsmobility.setHostAcceleration true

vector 0 HighWayScenario.node[0].veinsmobility posx ETV
vector 1 HighWayScenario.node[0].veinsmobility posy ETV
vector 2 HighWayScenario.node[0].veinsmobility laneid ETV
vector 3 HighWayScenario.node[1].veinsmobility posx ETV
vector 4 HighWayScenario.node[1].veinsmobility posy ETV
vector 5 HighWayScenario.node[1].veinsmobility laneid ETV
vector 6 HighWayScenario.node[2].veinsmobility posx ETV
vector 7 HighWayScenario.node[2].veinsmobility posy ETV
vector 8 HighWayScenario.node[2].veinsmobility laneid ETV
vector 9 HighWayScenario.node[0].veinsmobility speed ETV
vector 10 HighWayScenario.node[1].veinsmobility speed ETV
vector 11 HighWayScenario.node[2].veinsmobility speed ETV
vector 12 HighWayScenario.node[0].veinsmobility acceleration ETV
vector 13 HighWayScenario.node[0].veinsmobility co2emission ETV
vector 14 HighWayScenario.node[1].veinsmobility acceleration ETV
vector 15 HighWayScenario.node[1].veinsmobility co2emission ETV
vector 16 HighWayScenario.node[2].veinsmobility acceleration ETV
vector 17 HighWayScenario.node[2].veinsmobility co2emission ETV
vector 18 HighWayScenario.node[3].veinsmobility posx ETV
vector 19 HighWayScenario.node[3].veinsmobility posy ETV
vector 20 HighWayScenario.node[3].veinsmobility laneid ETV
vector 21 HighWayScenario.node[4].veinsmobility posx ETV
vector 22 HighWayScenario.node[4].veinsmobility posy ETV
vector 23 HighWayScenario.node[4].veinsmobility laneid ETV
vector 24 HighWayScenario.node[5].veinsmobility posx ETV
vector 25 HighWayScenario.node[5].veinsmobility posy ETV
vector 26 HighWayScenario.node[5].veinsmobility laneid ETV
vector 27 HighWayScenario.node[3].veinsmobility speed ETV
vector 28 HighWayScenario.node[4].veinsmobility speed ETV
vector 29 HighWayScenario.node[5].veinsmobility speed ETV
vector 30 HighWayScenario.node[3].veinsmobility acceleration ETV
vector 31 HighWayScenario.node[3].veinsmobility co2emission ETV
vector 32 HighWayScenario.node[4].veinsmobility acceleration ETV
vector 33 HighWayScenario.node[4].veinsmobility co2emission ETV
vector 34 HighWayScenario.node[5].veinsmobility acceleration ETV
vector 35 HighWayScenario.node[5].veinsmobility co2emission ETV
vector 36 HighWayScenario.node[6].veinsmobility posx ETV
vector 37 HighWayScenario.node[6].veinsmobility posy ETV
vector 38 HighWayScenario.node[6].veinsmobility laneid ETV
vector 39 HighWayScenario.node[7].veinsmobility posx ETV
vector 40 HighWayScenario.node[7].veinsmobility posy ETV
vector 41 HighWayScenario.node[7].veinsmobility laneid ETV
vector 42 HighWayScenario.node[8].veinsmobility posx ETV
vector 43 HighWayScenario.node[8].veinsmobility posy ETV
vector 44 HighWayScenario.node[8].veinsmobility laneid ETV
vector 45 HighWayScenario.node[6].veinsmobility speed ETV
vector 46 HighWayScenario.node[7].veinsmobility speed ETV
vector 47 HighWayScenario.node[8].veinsmobility speed ETV
vector 48 HighWayScenario.node[6].veinsmobility acceleration ETV
vector 49 HighWayScenario.node[6].veinsmobility co2emission ETV
vector 50 HighWayScenario.node[7].veinsmobility acceleration ETV
vector 51 HighWayScenario.node[7].veinsmobility co2emission ETV
vector 52 HighWayScenario.node[8].veinsmobility acceleration ETV
vector 53 HighWayScenario.node[8].veinsmobility co2emission ETV
8	2	0.1	2
8	3	0.2	2
8	4	0.3	2
8	5	0.4	2
8	6	0.5	2
8	7	0.6	2
8	8	0.7	2
8	51	0.8	2
8	52	0.9	2
8	74	1	2
8	75	1.1	2
8	76	1.2	2
8	77	1.3	2
8	78	1.4	2
8	79	1.5	2
8	80	1.6	2
8	81	1.7	2
8	124	1.8	2
8	125	1.9	2
8	147	2	2
8	148	2.1	2
8	149	2.2	2
8	150	2.3	2
8	151	2.4	2
8	152	2.5	2
8	153	2.6	2
8	154	2.7	2
8	197	2.8	2
8	198	2.9	2
8	220	3	2
8	221	3.1	2
8	222	3.2	2
8	223	3.3	2
8	224	3.4	2
8	225	3.5	2
8	226	3.6	2
8	227	3.7	2
8	270	3.8	2
8	271	3.9	2
8	293	4	2
8	294	4.1	2
8	295	4.2	2
8	296	4.3	2
8	297	4.4	2
8	298	4.5	2
8	299	4.6	2
8	300	4.7	2
8	343	4.8	2
8	344	4.9	2
8	366	5	2
8	367	5.1	2
8	368	5.2	2
8	369	5.3	2
8	370	5.4	2
8	371	5.5	2
8	372	5.6	2
8	373	5.7	2
8	416	5.8	2
8	417	5.9	2
8	439	6	2
8	440	6.1	2
8	441	6.2	2
8	442	6.3	2
8	443	6.4	2
8	444	6.5	2
8	445	6.6	2
8	446	6.7	2
8	489	6.8	2
8	490	6.9	2
8	512	7	2
8	513	7.1	2
8	514	7.2	2
8	515	7.3	2
8	516	7.4	2
8	517	7.5	2
8	518	7.6	2
8	519	7.7	2
8	562	7.8	2
8	563	7.9	2
8	585	8	2
8	586	8.1	2
8	587	8.2	2
8	588	8.3	2
8	589	8.4	2
8	590	8.5	2
8	591	8.6	2
8	592	8.7	2
8	635	8.8	2
8	636	8.9	2
8	658	9	2
8	659	9.1	2
8	660	9.2	2
8	661	9.3	2
8	662	9.4	2
8	663	9.5	2
8	664	9.6	2
8	665	9.7	2
8	708	9.8	2
8	709	9.9	2
8	731	10	2
8	733	10.1	2
8	734	10.2	2
8	735	10.3	2
8	736	10.4	2
8	737	10.5	2
8	738	10.6	2
8	739	10.7	2
8	782	10.8	2
8	783	10.9	2
8	805	11	2
8	806	11.1	2
8	807	11.2	2
8	808	11.3	2
8	810	11.4	2
8	811	11.5	2
8	812	11.6	2
8	813	11.7	2
8	892	11.8	2
8	971	11.9	2
8	1050	12	2
8	1051	12.1	2
8	1052	12.2	2
8	1053	12.3	2
8	1054	12.4	1
8	1055	12.5	1
8	1056	12.6	1
8	1057	12.7	1
8	1136	12.8	1
8	1215	12.9	1
8	1294	13	1
8	1295	13.1	1
8	1296	13.2	1
8	1297	13.3	1
8	1299	13.4	1
8	1301	13.5	1
8	1302	13.6	1
8	1303	13.7	1
8	1382	13.8	1
8	1461	13.9	1
8	1540	14	1
8	1541	14.1	1
8	1542	14.2	1
8	1543	14.3	1
8	1544	14.4	1
8	1545	14.5	1
8	1546	14.6	1
8	1547	14.7	1
8	1626	14.8	1
8	1705	14.9	1
8	1784	15	1
8	1785	15.1	1
8	1786	15.2	1
8	1787	15.3	1
8	1788	15.4	1
8	1789	15.5	1
8	1790	15.6	1
8	1791	15.7	1
8	1870	15.8	1
8	1949	15.9	1
8	2028	16	1
8	2029	16.1	1
8	2030	16.2	1
8	2031	16.3	1
8	2032	16.4	1
8	2033	16.5	1
8	2034	16.6	1
8	2035	16.7	1
8	2114	16.8	1
8	2193	16.9	1
8	2272	17	1
8	2273	17.1	1
8	2274	17.2	1
8	2275	17.3	1
8	2276	17.4	1
8	2277	17.5	1
8	2278	17.6	1
8	2279	17.7	1
8	2358	17.8	1
8	2437	17.9	1
8	2516	18	1
8	2517	18.1	1
8	2518	18.2	1
8	2519	18.3	1
8	2520	18.4	1
8	2521	18.5	1
8	2522	18.6	1
8	2523	18.7	1
8	2602	18.8	1
8	2681	18.9	1
8	2760	19	1
8	2761	19.1	1
8	2762	19.2	1
8	2763	19.3	1
8	2764	19.4	1
8	2765	19.5	1
8	2766	19.6	1
8	2767	19.7	1
8	2846	19.8	1
8	2925	19.9	1
8	3004	20	1
8	3005	20.1	1
8	3006	20.2	1
8	3007	20.3	1
8	3008	20.4	1
8	3009	20.5	1
8	3010	20.6	1
8	3011	20.7	1
8	3090	20.8	1
8	3169	20.9	1
8	3248	21	1
8	3249	21.1	1
8	3250	21.2	1
8	3251	21.3	1
8	3253	21.4	1
8	3254	21.5	1
8	3255	21.6	1
8	3256	21.7	1
8	3335	21.8	1
8	3414	21.9	1
8	3493	22	1
8	3494	22.1	1
8	3495	22.2	1
8	3496	22.3	1
8	3575	22.4	1
8	3612	22.5	1
8	3670	22.6	1
8	3671	22.7	1
8	3786	22.8	1
8	3901	22.9	1
8	4016	23	1
8	4017	23.1	1
8	4018	23.2	1
8	4019	23.3	1
8	4098	23.4	1
8	4135	23.5	1
8	4193	23.6	1
8	4194	23.7	1
8	4309	23.8	1
8	4424	23.9	1
8	4539	24	1
8	4540	24.1	1
8	4541	24.2	1
8	4542	24.3	1
8	4621	24.4	1
8	4658	24.5	1
8	4712	24.6	1
8	4713	24.7	1
8	4828	24.8	1
8	4943	24.9	1
8	5046	25	1
8	5047	25.1	1
8	5048	25.2	1
8	5049	25.3	1
8	5118	25.4	1
8	5149	25.5	1
8	5199	25.6	1
8	5200	25.7	1
8	5303	25.8	1
8	5418	25.9	1
8	5521	26	1
8	5522	26.1	0
8	5523	26.2	0
8	5524	26.3	0
8	5588	26.4	0
8	5616	26.5	0
8	5662	26.6	0
8	5663	26.7	0
17	4	0.3	1.4480468302251
17	5	0.4	1.6268591137988
17	6	0.5	1.6586542753147
17	7	0.6	1.8252540470042
17	8	0.7	1.8190649872093
17	51	0.8	2.063408610152
17	52	0.9	2.14751856221
17	74	1	2.2774093617042
17	75	1.1	2.4428519126173
17	76	1.2	2.542008837538
17	77	1.3	2.8236151885163
17	78	1.4	2.9236878057556
17	79	1.5	2.5420214702149
17	80	1.6	2.7070170664706
17	81	1.7	3.3820678950566
17	124	1.8	3.310943510873
17	125	1.9	3.1950236315466
17	147	2	3.6013307755759
17	148	2.1	3.2052209388617
17	149	2.2	3.3082205102353
17	150	2.3	3.0919063790972
17	151	2.4	3.6173046793545
17	152	2.5	3.4609572753726
17	153	2.6	4.4882561358041
17	154	2.7	3.9846719726895
17	197	2.8	4.0597306078535
17	198	2.9	4.0207516137283
17	220	3	4.911212657581
17	221	3.1	3.9603874790082
17	222	3.2	3.9005893076168
17	223	3.3	5.1023907852016
17	224	3.4	3.9193512947204
17	225	3.5	4.6752029050073
17	226	3.6	4.893949358435
17	227	3.7	5.206694376531
17	270	3.8	4.2496860333551
17	271	3.9	5.9878111365783
17	293	4	6.3924052307207
17	294	4.1	4.1988549228218
17	295	4.2	5.4941983652398
17	296	4.3	6.1742593746855
17	297	4.4	6.9687913521682
17	298	4.5	6.48637020352
17	299	4.6	6.2027475896199
17	300	4.7	7.2722073357835
17	343	4.8	7.4967887495214
17	344	4.9	7.3883607244326
17	366	5	7.7210337523561
17	367	5.1	6.6491723215625
17	368	5.2	6.408354325459
17	369	5.3	6.6102726652427
17	370	5.4	7.9088204635544
17	371	5.5	8.0711970996987
17	372	5.6	8.6439409901504
17	373	5.7	6.334085182152
17	416	5.8	8.48670478205
17	417	5.9	7.252414108702
17	439	6	8.2451331831075
17	440	6.1	9.1059328948967
17	441	6.2	8.0400096834491
17	442	6.3	8.5694070591569
17	443	6.4	9.3967817456562
17	444	6.5	8.4076520291259
17	445	6.6	7.779393339687
17	446	6.7	7.8116923543829
17	489	6.8	8.6630044119114
17	490	6.9	7.3835913822288
17	512	7	8.7669708286741
17	513	7.1	8.1510225890821
17	514	7.2	9.5318284254814
17	515	7.3	8.5894530859722
17	516	7.4	7.8249183051382
17	517	7.5	6.9528951570527
17	518	7.6	9.0061778568673
17	519	7.7	11.390990136066
17	562	7.8	11.347384326589
17	563	7.9	11.583626738868
17	585	8	8.8942049468086
17	586	8.1	8.1955574944054
17	587	8.2	7.6796940717113
17	588	8.3	10.148493177098
17	589	8.4	10.314618995618
17	590	8.5	12.564440871177
17	591	8.6	10.883542885615
17	592	8.7	10.719537212165
17	635	8.8	12.678946187724
17	636	8.9	12.923331822336
17	658	9	12.36338346715
17	659	9.1	13.421895170432
17	660	9.2	13.096381417357
17	661	9.3	12.111207247382
17	662	9.4	13.37927739287
17	663	9.5	13.79984606032
17	664	9.6	12.652847688929
17	665	9.7	13.763917735082
17	708	9.8	10.07591570503
17	709	9.9	3.6338004932354
17	731	10	0.68266341449612
17	733	10.1	3.2957305674099
17	734	10.2	3.6069997856646
17	735	10.3	1.9645741114421
17	736	10.4	5.1119831834219
17	737	10.5	0.973
17	738	10.6	6.4504406057391
17	739	10.7	0.973
17	782	10.8	2.6253717792837
17	783	10.9	4.9056186043277
17	805	11	3.4900927119036
17	806	11.1	3.9733912860442
17	807	11.2	4.0322931887638
17	808	11.3	0.973
17	810	11.4	4.7795133120897
17	811	11.5	0.973
17	812	11.6	2.4682274606068
17	813	11.7	5.5467276834899
17	892	11.8	1.5600700422848
17	971	11.9	2.7747020632624
17	1050	12	4.217718175858
17	1051	12.1	0.973
17	1052	12.2	6.1509213822012
17	1053	12.3	3.4564045816366
17	1054	12.4	0.973
17	1055	12.5	5.0882282274232
17	1056	12.6	1.2134374780292
17	1057	12.7	4.6313176639445
17	1136	12.8	1.4947233075051
17	1215	12.9	2.3867398056095
17	1294	13	6.020919508021
17	1295	13.1	0.973
17	1296	13.2	3.0692127586865
17	1297	13.3	4.64890725108
17	1299	13.4	0.973
17	1301	13.5	5.35534915981
17	1302	13.6	0.973
17	1303	13.7	1.9974041834293
17	1382	13.8	8.2721935636743
17	1461	13.9	0.973
17	1540	14	5.4763285369522
17	1541	14.1	0.973
17	1542	14.2	7.3488309920432
17	1543	14.3	0.98728789777957
17	1544	14.4	0.973
17	1545	14.5	6.326480433514
17	1546	14.6	0.973
17	1547	14.7	2.7473170880547
17	1626	14.8	5.7551663293421
17	1705	14.9	0.973
17	1784	15	6.6984290902152
17	1785	15.1	0.973
17	1786	15.2	6.3902592771072
17	1787	15.3	0.973
17	1788	15.4	4.2985862158721
17	1789	15.5	0.96680011768145
17	1790	15.6	4.6664065116012
17	1791	15.7	4.0541620209204
17	1870	15.8	0.973
17	1949	15.9	4.5584492427932
17	2028	16	5.8334063566495
17	2029	16.1	1.771802994071
17	2030	16.2	1.9639896454949
17	2031	16.3	4.5419383467682
17	2032	16.4	1.9596303063274
17	2033	16.5	3.5482367963199
17	2034	16.6	1.9419840447983
17	2035	16.7	3.7545385127869
17	2114	16.8	3.3163312017178
17	2193	16.9	1.3417347412477
17	2272	17	3.9020578770481
17	2273	17.1	2.1115069626988
17	2274	17.2	3.7222479150984
17	2275	17.3	1.5519355615477
17	2276	17.4	4.0945815773287
17	2277	17.5	2.2297333708801
17	2278	17.6	2.9935094082191
17	2279	17.7	0.973
17	2358	17.8	4.9746997812538
17	2437	17.9	2.2208870565263
17	2516	18	3.9944393456658
17	2517	18.1	1.313422685528
17	2518	18.2	3.2896055944582
17	2519	18.3	1.8155086163548
17	2520	18.4	2.5671466677772
17	2521	18.5	3.5423122954473
17	2522	18.6	0.973
17	2523	18.7	5.3836078636072
17	2602	18.8	2.0551637707167
17	2681	18.9	3.1285911169064
17	2760	19	2.4840296934799
17	2761	19.1	4.1511414617249
17	2762	19.2	1.8854771082382
17	2763	19.3	4.6041927302105
17	2764	19.4	0.973
17	2765	19.5	5.8036556884031
17	2766	19.6	0.78065342664968
17	2767	19.7	5.7771795202294
17	2846	19.8	4.5235371723327
17	2925	19.9	0.973
17	3004	20	6.5120406669917
17	3005	20.1	1.3745563745868
17	3006	20.2	3.5276403041357
17	3007	20.3	2.2216080544013
17	3008	20.4	4.307111751266
17	3009	20.5	2.0926011213858
17	3010	20.6	3.1565419677587
17	3011	20.7	1.0986887263894
17	3090	20.8	2.4815816178736
17	3169	20.9	4.5319000305277
17	3248	21	0.973
17	3249	21.1	3.893026588808
17	3250	21.2	5.5011149718061
17	3251	21.3	2.6841958744673
17	3253	21.4	0.973
17	3254	21.5	5.1846803979945
17	3255	21.6	0.973
17	3256	21.7	8.5567148518483
17	3335	21.8	0.973
17	3414	21.9	3.3878598347575
17	3493	22	4.0224087962145
17	3494	22.1	0.973
17	3495	22.2	5.6240940031572
17	3496	22.3	4.1911059239767
17	3575	22.4	2.9971153244768
17	3612	22.5	0.973
17	3670	22.6	5.8470178414346
17	3671	22.7	0.973
17	3786	22.8	8.4099446218337
17	3901	22.9	0.973
17	4016	23	4.7226894255315
17	4017	23.1	4.2633069782362
17	4018	23.2	0.973
17	4019	23.3	7.0112672223414
17	4098	23.4	0.973
17	4135	23.5	5.3086533288812
17	4193	23.6	0.88989069822145
17	4194	23.7	3.3719136821881
17	4309	23.8	0.973
17	4424	23.9	8.4600819081035
17	4539	24	0.973
17	4540	24.1	3.0056912615136
17	4541	24.2	5.6958937171233
17	4542	24.3	0.82598791438637
17	4621	24.4	2.354286239198
17	4658	24.5	2.3992441230314
17	4712	24.6	2.9999479576756
17	4713	24.7	0.973
17	4828	24.8	5.0504042793925
17	4943	24.9	4.4433659003541
17	5046	25	0.84675480814053
17	5047	25.1	2.8403031574104
17	5048	25.2	1.4660954295584
17	5049	25.3	2.2655605079545
17	5118	25.4	7.2550653200717
17	5149	25.5	0.973
17	5199	25.6	4.0088162748573
17	5200	25.7	0.973
17	5303	25.8	2.4347383051695
17	5418	25.9	2.8158550118086
17	5521	26	3.7045869370229
17	5522	26.1	4.0587088675663
17	5523	26.2	0.70038994316112
17	5524	26.3	7.5244091900908
17	5588	26.4	2.773030473741
17	5616	26.5	1.3484749582529
17	5662	26.6	1.3766902777293
17	5663	26.7	6.7299336188169
16	4	0.3	2.5524031753037
16	5	0.4	2.5900239454906
16	6	0.5	2.1209202813575
16	7	0.6	2.2590260056666
16	8	0.7	1.9050436400056
16	51	0.8	2.2393193401412
16	52	0.9	2.1440920922498
16	74	1	2.1595775195604
16	75	1.1	2.2295604213234
16	76	1.2	2.1814114907447
16	77	1.3	2.3992453218205
16	78	1.4	2.3339567731367
16	79	1.5	1.6914785038913
16	80	1.6	1.7949477385497
16	81	1.7	2.4440642929869
16	124	1.8	2.2104489195393
16	125	1.9	1.9692713107215
16	147	2	2.2531245406251
16	148	2.1	1.7774409501813
16	149	2.2	1.79252601685
16	150	2.3	1.5363052613102
16	151	2.4	1.9121152825421
16	152	2.5	1.7120662064524
16	153	2.6	2.4250460749725
16	154	2.7	1.951870482089
16	197	2.8	1.9323484468274
16	198	2.9	1.8371639273595
16	220	3	2.3602281783009
16	221	3.1	1.6643194997916
16	222	3.2	1.5790643082233
16	223	3.3	2.2639524940867
16	224	3.4	1.4898321218323
16	225	3.5	1.8899304886116
16	226	3.6	1.9574921074789
16	227	3.7	2.0704998177476
16	270	3.8	1.4994700613664
16	271	3.9	2.3699199890951
16	293	4	2.4964608877665
16	294	4.1	1.3394778700545
16	295	4.2	1.9431800845079
16	296	4.3	2.2138761321548
16	297	4.4	2.5151275452692
16	298	4.5	2.2257705341326
16	299	4.6	2.0434409694979
16	300	4.7	2.448948680493
16	343	4.8	2.4745098020183
16	344	4.9	2.3637548515107
16	366	5	2.434692036733
16	367	5.1	1.957423301693
16	368	5.2	1.8242310995702
16	369	5.3	1.8645053305663
16	370	5.4	2.3061843959149
16	371	5.5	2.3116142827086
16	372	5.6	2.4609706099611
16	373	5.7	1.6022614705609
16	416	5.8	2.3136019318597
16	417	5.9	1.8494995088084
16	439	6	2.1452258290024
16	440	6.1	2.3818296912359
16	441	6.2	1.9918762693647
16	442	6.3	2.1222872203216
16	443	6.4	2.3377338049468
16	444	6.5	1.9907243428519
16	445	6.6	1.767471255688
16	446	6.7	1.7494539632695
16	489	6.8	1.9720092187403
16	490	6.9	1.5689833340934
16	512	7	1.9431922679767
16	513	7.1	1.7380196658196
16	514	7.2	2.097039554338
16	515	7.3	1.8030613981653
16	516	7.4	1.5682713115588
16	517	7.5	1.3118924039882
16	518	7.6	1.8459945622599
16	519	7.7	2.4446697610198
16	562	7.8	2.389011815819
16	563	7.9	2.406865785527
16	585	8	1.6890219534282
16	586	8.1	1.4920346570201
16	587	8.2	1.3460835929494
16	588	8.3	1.9376163563226
16	589	8.4	1.9499891268323
16	590	8.5	2.4587745521218
16	591	8.6	2.0218119615805
16	592	8.7	1.9543769102544
16	635	8.8	2.3779511233559
16	636	8.9	2.3950566372601
16	658	9	2.2313563170843
16	659	9.1	2.4318234388251
16	660	9.2	2.3220951232361
16	661	9.3	2.0740360647207
16	662	9.4	2.3161142795347
16	663	9.5	2.3701110073133
16	664	9.6	2.0952365277801
16	665	9.7	2.2959023804753
16	708	9.8	1.5080074533989
16	709	9.9	0.1699301000335
16	731	10	-0.44171982981499
16	733	10.1	0.10110219176859
16	734	10.2	0.16509495172652
16	735	10.3	-0.17545466992306
16	736	10.4	0.47582827246515
16	737	10.5	-1.179155851854
16	738	10.6	0.7562724358635
16	739	10.7	-0.59350491107907
16	782	10.8	-0.036355627048756
16	783	10.9	0.43642479430417
16	805	11	0.14152329573406
16	806	11.1	0.24085996176584
16	807	11.2	0.25193452483506
16	808	11.3	-0.935257760901
16	810	11.4	0.40962173594163
16	811	11.5	-0.59379576945211
16	812	11.6	-0.068756423308507
16	813	11.7	0.56963536879046
16	892	11.8	-0.2587387230713
16	971	11.9	-0.0058499546488733
16	1050	12	0.29317632096355
16	1051	12.1	-0.62307956723963
16	1052	12.2	0.69457856377124
16	1053	12.3	0.13409280297346
16	1054	12.4	-0.57077251635491
16	1055	12.5	0.47352911445778
16	1056	12.6	-0.33100865755696
16	1057	12.7	0.37834921116009
16	1136	12.8	-0.27267180026975
16	1215	12.9	-0.086876291502271
16	1294	13	0.66497807721607
16	1295	13.1	-0.73305662148631
16	1296	13.2	0.055191751965324
16	1297	13.3	0.3819533952279
16	1299	13.4	-0.5320821550675
16	1301	13.5	0.5287117424421
16	1302	13.6	-0.51513362333644
16	1303	13.7	-0.16711952236946
16	1382	13.8	1.1305744250305
16	1461	13.9	-0.63237183762251
16	1540	14	0.55161217593124
16	1541	14.1	-0.92710730177352
16	1542	14.2	0.93974939105102
16	1543	14.3	-0.37861594716087
16	1544	14.4	-0.76248455995231
16	1545	14.5	0.73064375498799
16	1546	14.6	-0.49805181017145
16	1547	14.7	-0.01127740668597
16	1626	14.8	0.61130484335589
16	1705	14.9	-0.6127922356827
16	1784	15	0.80575211716351
16	1785	15.1	-0.55341534232724
16	1786	15.2	0.74051371738317
16	1787	15.3	-0.91004488493784
16	1788	15.4	0.30992223245558
16	1789	15.5	-0.38213729502168
16	1790	15.6	0.38635985066648
16	1791	15.7	0.25790912637024
16	1870	15.8	-0.73149900168648
16	1949	15.9	0.36447794602719
16	2028	16	0.62561647708062
16	2029	16.1	-0.21600283373846
16	2030	16.2	-0.17568836070133
16	2031	16.3	0.35802568816582
16	2032	16.4	-0.1770310304477
16	2033	16.5	0.15206665720328
16	2034	16.6	-0.18062507670841
16	2035	16.7	0.19479149902473
16	2114	16.8	0.10352164064535
16	2193	16.9	-0.30521245928249
16	2272	17	0.22527928698111
16	2273	17.1	-0.14562270533062
16	2274	17.2	0.18781618694774
16	2275	17.3	-0.26158923041073
16	2276	17.4	0.26498877975392
16	2277	17.5	-0.12127869015096
16	2278	17.6	0.037023589992913
16	2279	17.7	-0.47834115043518
16	2358	17.8	0.44807690394808
16	2437	17.9	-0.12280203826958
16	2516	18	0.24419759976443
16	2517	18.1	-0.31103164138038
16	2518	18.2	0.098891077726151
16	2519	18.3	-0.20654396277386
16	2520	18.4	-0.050250518915718
16	2521	18.5	0.15175872935217
16	2522	18.6	-0.55592108038255
16	2523	18.7	0.53419282389804
16	2602	18.8	-0.15656651207244
16	2681	18.9	0.066265340708185
16	2760	19	-0.067438995698446
16	2761	19.1	0.27770785958271
16	2762	19.2	-0.19202721820911
16	2763	19.3	0.37080576978624
16	2764	19.4	-1.1186774091097
16	2765	19.5	0.62268100614894
16	2766	19.6	-0.42087958391058
16	2767	19.7	0.61593218863706
16	2846	19.8	0.35381454642632
16	2925	19.9	-0.80382163666656
16	3004	20	0.76627065475332
16	3005	20.1	-0.29831706512486
16	3006	20.2	0.14813772279304
16	3007	20.3	-0.1225091085071
16	3008	20.4	0.30895885050995
16	3009	20.5	-0.14969845580634
16	3010	20.6	0.070749142346891
16	3011	20.7	-0.35544490185565
16	3090	20.8	-0.067964655684776
16	3169	20.9	0.35629656179808
16	3248	21	-0.61180026774526
16	3249	21.1	0.22547863797517
16	3250	21.2	0.55631472958485
16	3251	21.3	-0.027439494477584
16	3253	21.4	-0.73663974478841
16	3254	21.5	0.49229469181736
16	3255	21.6	-0.9892673972179
16	3256	21.7	1.1902797193499
16	3335	21.8	-0.62131140062121
16	3414	21.9	0.12054427717811
16	3493	22	0.25129298099781
16	3494	22.1	-0.64911867047194
16	3495	22.2	0.58419771570481
16	3496	22.3	0.28527136287885
16	3575	22.4	0.037547590536988
16	3612	22.5	-0.95968350796028
16	3670	22.6	0.63053136200178
16	3671	22.7	-0.7866007850971
16	3786	22.8	1.1593756505172
16	3901	22.9	-0.96095673054222
16	4016	23	0.3980495944619
16	4017	23.1	0.30111113160384
16	4018	23.2	-0.92905050541741
16	4019	23.3	0.87189664427424
16	4098	23.4	-0.47221149540274
16	4135	23.5	0.51814213318288
16	4193	23.6	-0.39851835956799
16	4194	23.7	0.11723556190265
16	4309	23.8	-0.65506456131118
16	4424	23.9	1.1701271061902
16	4539	24	-0.57524663239022
16	4540	24.1	0.041180183680254
16	4541	24.2	0.59665596330309
16	4542	24.3	-0.4121579708066
16	4621	24.4	-0.094486304430745
16	4658	24.5	-0.084900917380573
16	4712	24.6	0.039829073101245
16	4713	24.7	-0.60576921233441
16	4828	24.8	0.46675914446826
16	4943	24.9	0.33881635053547
16	5046	25	-0.40740889026782
16	5047	25.1	0.0073175716912388
16	5048	25.2	-0.27804285306484
16	5049	25.3	-0.11118663370144
16	5118	25.4	0.92154204898979
16	5149	25.5	-0.55642726821823
16	5199	25.6	0.2493887504097
16	5200	25.7	-0.64793052680326
16	5303	25.8	-0.075604575499888
16	5418	25.9	0.0038682816084545
16	5521	26	0.18841905284209
16	5522	26.1	0.26100048967635
16	5523	26.2	-0.43733763250057
16	5524	26.3	0.97772904282902
16	5588	26.4	-0.0082665256457304
16	5616	26.5	-0.30336757134645
16	5662	26.6	-0.29696635287255
16	5663	26.7	0.81136426746379
11	3	0.2	0.25433206626587
11	4	0.3	0.50957238379624
11	5	0.4	0.7685747783453
11	6	0.5	0.98066680648105
11	7	0.6	1.2065694070477
11	8	0.7	1.3970737710483
11	51	0.8	1.6210057050624
11	52	0.9	1.8354149142874
11	74	1	2.0513726662434
11	75	1.1	2.2743287083758
11	76	1.2	2.4924698574502
11	77	1.3	2.7323943896323
11	78	1.4	2.965790066946
11	79	1.5	3.1349379173351
11	80	1.6	3.31443269119
11	81	1.7	3.5588391204887
11	124	1.8	3.7798840124427
11	125	1.9	3.9768111435148
11	147	2	4.2021235975773
11	148	2.1	4.3798676925955
11	149	2.2	4.5591202942805
11	150	2.3	4.7127508204115
11	151	2.4	4.9039623486657
11	152	2.5	5.0751689693109
11	153	2.6	5.3176735768082
11	154	2.7	5.5128606250171
11	197	2.8	5.7060954696998
11	198	2.9	5.8898118624358
11	220	3	6.1258346802659
11	221	3.1	6.292266630245
11	222	3.2	6.4501730610674
11	223	3.3	6.676568310476
11	224	3.4	6.8255515226593
11	225	3.5	7.0145445715204
11	226	3.6	7.2102937822683
11	227	3.7	7.4173437640431
11	270	3.8	7.5672907701797
11	271	3.9	7.8042827690892
11	293	4	8.0539288578659
11	294	4.1	8.1878766448713
11	295	4.2	8.3821946533221
11	296	4.3	8.6035822665376
11	297	4.4	8.8550950210645
11	298	4.5	9.0776720744778
11	299	4.6	9.2820161714276
11	300	4.7	9.5269110394769
11	343	4.8	9.7743620196787
11	344	4.9	10.01073750483
11	366	5	10.254206708503
11	367	5.1	10.449949038672
11	368	5.2	10.632372148629
11	369	5.3	10.818822681686
11	370	5.4	11.049441121278
11	371	5.5	11.280602549548
11	372	5.6	11.526699610544
11	373	5.7	11.686925757601
11	416	5.8	11.918285950787
11	417	5.9	12.103235901667
11	439	6	12.317758484568
11	440	6.1	12.555941453691
11	441	6.2	12.755129080628
11	442	6.3	12.96735780266
11	443	6.4	13.201131183155
11	444	6.5	13.40020361744
11	445	6.6	13.576950743009
11	446	6.7	13.751896139335
11	489	6.8	13.949097061209
11	490	6.9	14.105995394619
11	512	7	14.300314621416
11	513	7.1	14.474116587998
11	514	7.2	14.683820543432
11	515	7.3	14.864126683249
11	516	7.4	15.020953814405
11	517	7.5	15.152143054803
11	518	7.6	15.336742511029
11	519	7.7	15.581209487131
11	562	7.8	15.820110668713
11	563	7.9	16.060797247266
11	585	8	16.229699442609
11	586	8.1	16.378902908311
11	587	8.2	16.513511267606
11	588	8.3	16.707272903238
11	589	8.4	16.902271815921
11	590	8.5	17.148149271133
11	591	8.6	17.350330467292
11	592	8.7	17.545768158317
11	635	8.8	17.783563270653
11	636	8.9	18.023068934379
11	658	9	18.246204566087
11	659	9.1	18.48938690997
11	660	9.2	18.721596422293
11	661	9.3	18.929000028765
11	662	9.4	19.160611456719
11	663	9.5	19.39762255745
11	664	9.6	19.607146210228
11	665	9.7	19.836736448276
11	708	9.8	19.987537193615
11	709	9.9	20.004530203619
11	731	10	19.960358220637
11	733	10.1	19.970468439814
11	734	10.2	19.986977934987
11	735	10.3	19.969432467994
11	736	10.4	20.017015295241
11	737	10.5	19.899099710056
11	738	10.6	19.974726953642
11	739	10.7	19.915376462534
11	782	10.8	19.911740899829
11	783	10.9	19.95538337926
11	805	11	19.969535708833
11	806	11.1	19.99362170501
11	807	11.2	20.018815157493
11	808	11.3	19.925289381403
11	810	11.4	19.966251554997
11	811	11.5	19.906871978052
11	812	11.6	19.899996335721
11	813	11.7	19.9569598726
11	892	11.8	19.931086000293
11	971	11.9	19.930501004828
11	1050	12	19.959818636924
11	1051	12.1	19.8975106802
11	1052	12.2	19.966968536578
11	1053	12.3	19.980377816875
11	1054	12.4	19.923300565239
11	1055	12.5	19.970653476685
11	1056	12.6	19.93755261093
11	1057	12.7	19.975387532046
11	1136	12.8	19.948120352019
11	1215	12.9	19.939432722868
11	1294	13	20.00593053059
11	1295	13.1	19.932624868441
11	1296	13.2	19.938144043638
11	1297	13.3	19.976339383161
11	1299	13.4	19.923131167654
11	1301	13.5	19.976002341898
11	1302	13.6	19.924488979564
11	1303	13.7	19.907777027328
11	1382	13.8	20.020834469831
11	1461	13.9	19.957597286068
11	1540	14	20.012758503661
11	1541	14.1	19.920047773484
11	1542	14.2	20.014022712589
11	1543	14.3	19.976161117873
11	1544	14.4	19.899912661878
11	1545	14.5	19.972977037377
11	1546	14.6	19.92317185636
11	1547	14.7	19.922044115691
11	1626	14.8	19.983174600027
11	1705	14.9	19.921895376458
11	1784	15	20.002470588175
11	1785	15.1	19.947129053942
11	1786	15.2	20.02118042568
11	1787	15.3	19.930175937186
11	1788	15.4	19.961168160432
11	1789	15.5	19.92295443093
11	1790	15.6	19.961590415996
11	1791	15.7	19.987381328633
11	1870	15.8	19.914231428465
11	1949	15.9	19.950679223068
11	2028	16	20.013240870776
11	2029	16.1	19.991640587402
11	2030	16.2	19.974071751332
11	2031	16.3	20.009874320148
11	2032	16.4	19.992171217103
11	2033	16.5	20.007377882824
11	2034	16.6	19.989315375153
11	2035	16.7	20.008794525055
11	2114	16.8	20.01914668912
11	2193	16.9	19.988625443192
11	2272	17	20.01115337189
11	2273	17.1	19.996591101357
11	2274	17.2	20.015372720052
11	2275	17.3	19.98921379701
11	2276	17.4	20.015712674986
11	2277	17.5	20.003584805971
11	2278	17.6	20.00728716497
11	2279	17.7	19.959453049927
11	2358	17.8	20.004260740321
11	2437	17.9	19.991980536494
11	2516	18	20.016400296471
11	2517	18.1	19.985297132333
11	2518	18.2	19.995186240105
11	2519	18.3	19.974531843828
11	2520	18.4	19.969506791936
11	2521	18.5	19.984682664872
11	2522	18.6	19.929090556833
11	2523	18.7	19.982509839223
11	2602	18.8	19.966853188016
11	2681	18.9	19.973479722087
11	2760	19	19.966735822517
11	2761	19.1	19.994506608475
11	2762	19.2	19.975303886654
11	2763	19.3	20.012384463633
11	2764	19.4	19.900516722722
11	2765	19.5	19.962784823337
11	2766	19.6	19.920696864946
11	2767	19.7	19.982290083809
11	2846	19.8	20.017671538452
11	2925	19.9	19.937289374785
11	3004	20	20.013916440261
11	3005	20.1	19.984084733748
11	3006	20.2	19.998898506028
11	3007	20.3	19.986647595177
11	3008	20.4	20.017543480228
11	3009	20.5	20.002573634647
11	3010	20.6	20.009648548882
11	3011	20.7	19.974104058696
11	3090	20.8	19.967307593128
11	3169	20.9	20.002937249308
11	3248	21	19.941757222533
11	3249	21.1	19.964305086331
11	3250	21.2	20.019936559289
11	3251	21.3	20.017192609841
11	3253	21.4	19.943528635363
11	3254	21.5	19.992758104544
11	3255	21.6	19.893831364823
11	3256	21.7	20.012859336758
11	3335	21.8	19.950728196695
11	3414	21.9	19.962782624413
11	3493	22	19.987911922513
11	3494	22.1	19.923000055466
11	3495	22.2	19.981419827036
11	3496	22.3	20.009946963324
11	3575	22.4	20.013701722378
11	3612	22.5	19.917733371582
11	3670	22.6	19.980786507782
11	3671	22.7	19.902126429272
11	3786	22.8	20.018063994324
11	3901	22.9	19.92196832127
11	4016	23	19.961773280716
11	4017	23.1	19.991884393876
11	4018	23.2	19.898979343335
11	4019	23.3	19.986169007762
11	4098	23.4	19.938947858222
11	4135	23.5	19.99076207154
11	4193	23.6	19.950910235583
11	4194	23.7	19.962633791774
11	4309	23.8	19.897127335642
11	4424	23.9	20.014140046261
11	4539	24	19.956615383022
11	4540	24.1	19.96073340139
11	4541	24.2	20.020398997721
11	4542	24.3	19.97918320064
11	4621	24.4	19.969734570197
11	4658	24.5	19.961244478459
11	4712	24.6	19.965227385769
11	4713	24.7	19.904650464536
11	4828	24.8	19.951326378982
11	4943	24.9	19.985208014036
11	5046	25	19.944467125009
11	5047	25.1	19.945198882178
11	5048	25.2	19.917394596872
11	5049	25.3	19.906275933502
11	5118	25.4	19.998430138401
11	5149	25.5	19.942787411579
11	5199	25.6	19.96772628662
11	5200	25.7	19.90293323394
11	5303	25.8	19.89537277639
11	5418	25.9	19.89575960455
11	5521	26	19.914601509835
11	5522	26.1	19.940701558802
11	5523	26.2	19.896967795552
11	5524	26.3	19.994740699835
11	5588	26.4	19.993914047271
11	5616	26.5	19.963577290136
11	5662	26.6	19.933880654849
11	5663	26.7	20.015017081595
7	2	0.1	41.274438159653
7	3	0.2	41.274438159653
7	4	0.3	41.27800099364
7	5	0.4	41.285139384936
7	6	0.5	41.29590603494
7	7	0.6	41.309643795498
7	8	0.7	41.326546133276
7	51	0.8	41.346117168842
7	52	0.9	41.368825175366
7	74	1	41.394536752887
7	75	1.1	41.423273594307
7	76	1.2	41.455133735814
7	77	1.3	41.490049727539
7	78	1.4	41.528326723993
7	79	1.5	41.569873265118
7	80	1.6	41.613789329358
7	81	1.7	41.660219862539
7	124	1.8	41.710074185514
7	125	1.9	41.763025036054
7	147	2	41.818734558302
7	148	2.1	41.877600390649
7	149	2.2	41.938956167391
7	150	2.3	42.002823020581
7	151	2.4	42.068842021032
7	152	2.5	42.137539625648
7	153	2.6	42.208635593851
7	154	2.7	42.283128710005
7	197	2.8	42.360356121757
7	198	2.9	42.440290481486
7	220	3	42.522798449088
7	221	3.1	42.608612763898
7	222	3.2	42.696758555885
7	223	3.3	42.787116394536
7	224	3.4	42.880645711723
7	225	3.5	42.97626207385
7	226	3.6	43.074525962369
7	227	3.7	43.175532021592
7	270	3.8	43.279438559402
7	271	3.9	43.385445643547
7	293	4	43.494772651762
7	294	4.1	43.60759685002
7	295	4.2	43.722297468091
7	296	4.3	43.839720207738
7	297	4.4	43.960244275991
7	298	4.5	44.084291683646
7	299	4.6	44.21145708229
7	300	4.7	44.341485053886
7	343	4.8	44.474943657616
7	344	4.9	44.61186870101
7	366	5	44.752105031985
7	367	5.1	44.895752023544
7	368	5.2	45.04214108942
7	369	5.3	45.191085646099
7	370	5.4	45.342642112105
7	371	5.5	45.497429217593
7	372	5.6	45.608454762891
7	373	5.7	45.681117924761
7	416	5.8	45.754791136242
7	417	5.9	45.82992281925
7	439	6	45.906220408255
7	440	6.1	45.983870326175
7	441	6.2	46.063021725718
7	442	6.3	46.143428784146
7	443	6.4	46.225173711218
7	444	6.5	46.308392322307
7	445	6.6	46.392865866118
7	446	6.7	46.478453606137
7	489	6.8	46.565144184443
7	490	6.9	46.653077897644
7	512	7	46.742000682251
7	513	7.1	46.832148435836
7	514	7.2	46.92339181964
7	515	7.3	47.015957156213
7	516	7.4	47.109659124664
7	517	7.5	47.204349715669
7	518	7.6	47.299867310529
7	519	7.7	47.396548601904
7	562	7.8	47.494770988655
7	563	7.9	47.594499384567
7	585	8	47.695745044607
7	586	8.1	47.798055447198
7	587	8.2	47.831331112185
7	588	8.3	47.845838742437
7	589	8.4	47.860516598276
7	590	8.5	47.87536576669
7	591	8.6	47.890430946051
7	592	8.7	47.905673747844
7	635	8.8	47.921088247692
7	636	8.9	47.936711657898
7	658	9	47.952545481236
7	659	9.1	47.968575336126
7	660	9.2	47.984818834224
7	661	9.3	48.001266335558
7	662	9.4	48.017896047374
7	663	9.5	47.956955797706
7	664	9.6	47.884015008201
7	665	9.7	47.810286347883
7	708	9.8	47.735694360466
7	709	9.9	47.66053531771
7	731	10	47.585312376218
7	733	10.1	47.510255534428
7	734	10.2	47.435160675227
7	735	10.3	47.360003735449
7	736	10.4	47.284912771808
7	737	10.5	47.199649951616
7	738	10.6	47.071568920758
7	739	10.7	46.867068889215
7	782	10.8	46.653125950905
7	783	10.9	46.429253057751
7	805	11	46.195036915143
7	806	11.1	45.950735319711
7	807	11.2	45.696261433451
7	808	11.3	45.431605575215
7	810	11.4	45.157805563299
7	811	11.5	44.883647468757
7	812	11.6	44.610008457871
7	813	11.7	44.336429552392
7	892	11.8	44.062352683764
7	971	11.9	43.788501999036
7	1050	12	43.514656428214
7	1051	12.1	43.240554568876
7	1052	12.2	42.966997392469
7	1053	12.3	42.692833030225
7	1054	12.4	42.4185514469
7	1055	12.5	42.086957892604
7	1056	12.6	41.812704593816
7	1057	12.7	41.538740750524
7	1136	12.8	41.264446054078
7	1215	12.9	40.990389799586
7	1294	13	40.716409515372
7	1295	13.1	40.441847731085
7	1296	13.2	40.167926979177
7	1297	13.3	39.893957964013
7	1299	13.4	39.619654943962
7	1301	13.5	39.345817211148
7	1302	13.6	39.071517138405
7	1303	13.7	38.807629223806
7	1382	13.8	38.553849141191
7	1461	13.9	38.309042102583
7	1540	14	38.074749742839
7	1541	14.1	37.849936709343
7	1542	14.2	37.635896090566
7	1543	14.3	37.430995385616
7	1544	14.4	37.236387458877
7	1545	14.5	37.052407990026
7	1546	14.6	36.877751290568
7	1547	14.7	36.703530120001
7	1626	14.8	36.529318811132
7	1705	14.9	36.354572937555
7	1784	15	36.180362929359
7	1785	15.1	36.005448319113
7	1786	15.2	35.831017651232
7	1787	15.3	35.65593943
7	1788	15.4	35.481657011196
7	1789	15.5	35.307103576238
7	1790	15.6	35.13288430698
7	1791	15.7	34.958327179544
7	1870	15.8	34.783544519597
7	1949	15.9	34.609401529945
7	2028	16	34.434939817076
7	2029	16.1	34.259931024476
7	2030	16.2	34.0851111188
7	2031	16.3	33.910444846452
7	2032	16.4	33.735465493159
7	2033	16.5	33.560640947312
7	2034	16.6	33.385683424492
7	2035	16.7	33.210883851984
7	2114	16.8	33.035913941122
7	2193	16.9	32.860853504206
7	2272	17	32.686059964912
7	2273	17.1	32.511069426759
7	2274	17.2	32.33620623057
7	2275	17.3	32.161178795694
7	2276	17.4	31.986380111451
7	2277	17.5	31.811343021424
7	2278	17.6	31.63640790929
7	2279	17.7	31.461440419331
7	2358	17.8	31.286891247705
7	2437	17.9	31.101988537314
7	2516	18	30.9271549067
7	2517	18.1	30.75210772069
7	2518	18.2	30.577332537703
7	2519	18.3	30.392509185523
7	2520	18.4	30.217828147008
7	2521	18.5	30.033229366434
7	2522	18.6	29.838536182911
7	2523	18.7	29.664252537
7	2602	18.8	29.47954004233
7	2681	18.9	29.304926155105
7	2760	19	29.120292630509
7	2761	19.1	28.945679769667
7	2762	19.2	28.760862360994
7	2763	19.3	28.58617457082
7	2764	19.4	28.40120081694
7	2765	19.5	28.227167054583
7	2766	19.6	28.042627058888
7	2767	19.7	27.868416817391
7	2846	19.8	27.683706244524
7	2925	19.9	27.501538088463
7	3004	20	27.354813743588
7	3005	20.1	27.197552594339
7	3006	20.2	27.050483868729
7	3007	20.3	26.893333240851
7	3008	20.4	26.746245654394
7	3009	20.5	26.588957812697
7	3010	20.6	26.441753021856
7	3011	20.7	26.284523281269
7	3090	20.8	26.137528006366
7	3169	20.9	25.990582748641
7	3248	21	25.83340239847
7	3249	21.1	25.686645173397
7	3250	21.2	25.618295639556
7	3251	21.3	25.551254244915
7	3253	21.4	25.47422206023
7	3254	21.5	25.427354701135
7	3255	21.6	25.370374414288
7	3256	21.7	25.323623843946
7	3335	21.8	25.266596319136
7	3414	21.9	25.219712041048
7	3493	22	25.16280219668
7	3494	22.1	25.095836060043
7	3495	22.2	25.049016943179
7	3496	22.3	24.992063301323
7	3575	22.4	24.925045382266
7	3612	22.5	24.848021401178
7	3670	22.6	24.80121466104
7	3671	22.7	24.744262507485
7	3786	22.8	24.697492443714
7	3901	22.9	24.640452687941
7	4016	23	24.684919621935
7	4017	23.1	24.745278932351
7	4018	23.2	24.795750578766
7	4019	23.3	24.865882366127
7	4098	23.4	24.926327656629
7	4135	23.5	24.996600308673
7	4193	23.6	25.057061786928
7	4194	23.7	25.127376599069
7	4309	23.8	25.187738942263
7	4424	23.9	25.257864202425
7	4539	24	25.318408073809
7	4540	24.1	25.388742993121
7	4541	24.2	25.449098638596
7	4542	24.3	25.499670781629
7	4621	24.4	25.570085238758
7	4658	24.5	25.640466395218
7	4712	24.6	25.714600130475
7	4713	24.7	25.927465293051
7	4828	24.8	26.129716908529
7	4943	24.9	26.322551868927
7	5046	25	26.505827396007
7	5047	25.1	26.67871073693
7	5048	25.2	26.841664707236
7	5049	25.3	26.994370857897
7	5118	25.4	27.137015392732
7	5149	25.5	27.270750789164
7	5199	25.6	27.393927701825
7	5200	25.7	27.517382920791
7	5303	25.8	27.640115079271
7	5418	25.9	27.760064977139
7	5521	26	27.874202572952
7	5522	26.1	27.988542416594
7	5523	26.2	28.104296121504
7	5524	26.3	28.21850660119
7	5588	26.4	28.333766860501
7	5616	26.5	28.449018244111
7	5662	26.6	28.563943904458
7	5663	26.7	28.678550714475
6	2	0.1	460.45902203295
6	3	0.2	460.45902203295
6	4	0.3	460.43383329446
6	5	0.4	460.38336586538
6	6	0.5	460.30724715418
6	7	0.6	460.21012310648
6	8	0.7	460.09062593999
6	51	0.8	459.95226145301
6	52	0.9	459.79171901967
6	74	1	459.60994175903
6	75	1.1	459.40677630532
6	76	1.2	459.18152955638
6	77	1.3	458.93467837337
6	78	1.4	458.66406535652
6	79	1.5	458.37033711568
6	80	1.6	458.05985667747
6	81	1.7	457.73159929519
6	124	1.8	457.37913619742
6	125	1.9	457.00478108243
6	147	2	456.6109225439
6	148	2.1	456.19474933397
6	149	2.2	455.76097256507
6	150	2.3	455.30944283653
6	151	2.4	454.84269772755
6	152	2.5	454.35701526139
6	153	2.6	453.85437669976
6	154	2.7	453.32772077677
6	197	2.8	452.78173376594
6	198	2.9	452.21660901113
6	220	3	451.63328920824
6	221	3.1	451.02659399256
6	222	3.2	450.40341555899
6	223	3.3	449.76459826458
6	224	3.4	449.10335906003
6	225	3.5	448.42736473937
6	226	3.6	447.73265277702
6	227	3.7	447.01855405094
6	270	3.8	446.28394934651
6	271	3.9	445.53449407297
6	293	4	444.76156740012
6	294	4.1	443.96391608229
6	295	4.2	443.15299873856
6	296	4.3	442.32283637563
6	297	4.4	441.47074805277
6	298	4.5	440.59375021262
6	299	4.6	439.69470861183
6	300	4.7	438.77542902023
6	343	4.8	437.83189533877
6	344	4.9	436.86385441322
6	366	5	435.87240314712
6	367	5.1	434.85683898724
6	368	5.2	433.82188874506
6	369	5.3	432.76887153996
6	370	5.4	431.69738850085
6	371	5.5	430.60306529199
6	372	5.6	429.48104746587
6	373	5.7	428.33038592923
6	416	5.8	427.16372969586
6	417	5.9	425.97397775561
6	439	6	424.76576304616
6	440	6.1	423.53613345706
6	441	6.2	422.2827270723
6	442	6.3	421.00943663151
6	443	6.4	419.71496029747
6	444	6.5	418.39714735831
6	445	6.6	417.05946186231
6	446	6.7	415.70413245037
6	489	6.8	414.33133898146
6	490	6.9	412.93885978086
6	512	7	411.53071808506
6	513	7.1	410.10317832496
6	514	7.2	408.65828865165
6	515	7.3	407.19246512184
6	516	7.4	405.70864239477
6	517	7.5	404.20916428032
6	518	7.6	402.69659010038
6	519	7.7	401.16558813962
6	562	7.8	399.61018207744
6	563	7.9	398.0309275235
6	585	8	396.42764624918
6	586	8.1	394.80750418504
6	587	8.2	393.16995287771
6	588	8.3	391.51825917358
6	589	8.4	389.84718528625
6	590	8.5	388.15660746234
6	591	8.6	386.44143679211
6	592	8.7	384.70604380797
6	635	8.8	382.95110300031
6	636	8.9	381.17237774829
6	658	9	379.36969696129
6	659	9.1	377.54469798211
6	660	9.2	375.69537572365
6	661	9.3	373.82282769671
6	662	9.4	371.92953500648
6	663	9.5	370.01419713436
6	664	9.6	368.07532917148
6	665	9.7	366.11551850304
6	708	9.8	364.13275939564
6	709	9.9	362.13492716611
6	731	10	360.13539641901
6	733	10.1	358.14028083374
6	734	10.2	356.14415469267
6	735	10.3	354.14637836322
6	736	10.4	352.15035577156
6	737	10.5	350.14995302794
6	738	10.6	348.1652961362
6	739	10.7	346.17759886175
6	782	10.8	344.19668934501
6	783	10.9	342.2170160463
6	805	11	340.23386809303
6	806	11.1	338.25018393891
6	807	11.2	336.26497377482
6	808	11.3	334.27812725173
6	810	11.4	332.3014737757
6	811	11.5	330.32073875206
6	812	11.6	328.34592042056
6	813	11.7	326.37178719092
6	892	11.8	324.3919780079
6	971	11.9	322.41474694592
6	1050	12	320.43757417398
6	1051	12.1	318.45748013833
6	1052	12.2	316.48359458406
6	1053	12.3	314.50278811903
6	1054	12.4	312.52064552823
6	1055	12.5	309.8539085301
6	1056	12.6	307.87324774627
6	1057	12.7	305.89588435296
6	1136	12.8	303.91475197936
6	1215	12.9	301.93633586527
6	1294	13	299.9587851819
6	1295	13.1	297.97461022341
6	1296	13.2	295.99773771429
6	1297	13.3	294.02031540456
6	1299	13.4	292.03908821094
6	1301	13.5	290.06316143052
6	1302	13.6	288.08196781176
6	1303	13.7	286.10503130176
6	1382	13.8	284.1288851078
6	1461	13.9	282.14060206431
6	1540	14	280.15774401498
6	1541	14.1	278.16851653213
6	1542	14.2	276.18765009331
6	1543	14.3	274.19654773608
6	1544	14.4	272.20834254706
6	1545	14.5	270.22685848887
6	1546	14.6	268.23722154824
6	1547	14.7	266.25254602262
6	1626	14.8	264.26798283852
6	1705	14.9	262.27733005296
6	1784	15	260.29278168573
6	1785	15.1	258.30020670246
6	1786	15.2	256.31314464602
6	1787	15.3	254.31870585528
6	1788	15.4	252.33333260804
6	1789	15.5	250.34487202574
6	1790	15.6	248.36021815926
6	1791	15.7	246.37171551336
6	1870	15.8	244.38064366847
6	1949	15.9	242.39685875648
6	2028	16	240.40944304481
6	2029	16.1	238.4157951643
6	2030	16.2	236.42429902719
6	2031	16.3	234.43455303505
6	2032	16.4	232.44124051834
6	2033	16.5	230.44969152179
6	2034	16.6	228.45662769128
6	2035	16.7	226.46536318355
6	2114	16.8	224.47215823218
6	2193	16.9	222.47792203505
6	2272	17	220.48672625589
6	2273	17.1	218.49328632458
6	2274	17.2	216.50129703489
6	2275	17.3	214.50743678713
6	2276	17.4	212.51618239825
6	2277	17.5	210.52228887201
6	2278	17.6	208.52960383876
6	2279	17.7	206.53654998986
6	2358	17.8	204.54826120312
6	2437	17.9	202.55638335872
6	2516	18	200.56485430098
6	2517	18.1	198.57089263476
6	2518	18.2	196.58002935367
6	2519	18.3	194.58905547827
6	2520	18.4	192.59926459642
6	2521	18.5	190.61084881511
6	2522	18.6	188.621795791
6	2523	18.7	186.63653160641
6	2602	18.8	184.64682050839
6	2681	18.9	182.65779454656
6	2760	19	180.66898299627
6	2761	19.1	178.67996872597
6	2762	19.2	176.68906255303
6	2763	19.3	174.69919476305
6	2764	19.4	172.7065076626
6	2765	19.5	170.7240899004
6	2766	19.6	168.73634373738
6	2767	19.7	166.75191570213
6	2846	19.8	164.76222649535
6	2925	19.9	162.76703864001
6	3004	20	160.77872549082
6	3005	20.1	158.7835063829
6	3006	20.2	156.79052640936
6	3007	20.3	154.79680501538
6	3008	20.4	152.80356945187
6	3009	20.5	150.80798862521
6	3010	20.6	148.81316478392
6	3011	20.7	146.81837130581
6	3090	20.8	144.82638668861
6	3169	20.9	142.83507987177
6	3248	21	140.84095570055
6	3249	21.1	138.85219698023
6	3250	21.2	136.84808026487
6	3251	21.3	134.84711902794
6	3253	21.4	132.84666711032
6	3254	21.5	130.85287451636
6	3255	21.6	128.85439535993
6	3256	21.7	126.86557109688
6	3335	21.8	124.86508238193
6	3414	21.9	122.87057003409
6	3493	22	120.87508758358
6	3494	22.1	118.87732791066
6	3495	22.2	116.88558759799
6	3496	22.3	114.88824195078
6	3575	22.4	112.88827939281
6	3612	22.5	110.88817646587
6	3670	22.6	108.89696267362
6	3671	22.7	106.89968034055
6	3786	22.8	104.9100268041
6	3901	22.9	102.9090177696
6	4016	23	100.89618074304
6	4017	23.1	98.900900631828
6	4018	23.2	96.902258853537
6	4019	23.3	94.913606645803
6	4098	23.4	92.915888489123
6	4135	23.5	90.92324193203
6	4193	23.6	88.92506475651
6	4194	23.7	86.931222710556
6	4309	23.8	84.935856602111
6	4424	23.9	82.947389479206
6	4539	24	80.946875969734
6	4540	24.1	78.952463766193
6	4541	24.2	76.957287577817
6	4542	24.3	74.955796124228
6	4621	24.4	72.959128551728
6	4658	24.5	70.963405250764
6	4712	24.6	68.932728962827
6	4713	24.7	66.947570657171
6	4828	24.8	64.967316217573
6	4943	24.9	62.981307404901
6	5046	25	60.99081564931
6	5047	25.1	59.003256556186
6	5048	25.2	57.014508785729
6	5049	25.3	55.027408104122
6	5118	25.4	53.040296379461
6	5149	25.5	51.042910881454
6	5199	25.6	49.049938914459
6	5200	25.7	47.054488649412
6	5303	25.8	45.065477187079
6	5418	25.9	43.082606011508
6	5521	26	41.093800489164
6	5522	26.1	39.103121671341
6	5523	26.2	37.11026886856
6	5524	26.3	35.121845854566
6	5588	26.4	33.123704583647
6	5616	26.5	31.125645478867
6	5662	26.6	29.130601733017
6	5663	26.7	27.138509720407
2	2	0.1	0
2	3	0.2	0
2	4	0.3	0
2	5	0.4	0
2	6	0.5	0
2	7	0.6	0
2	8	0.7	0
2	51	0.8	0
2	52	0.9	0
2	74	1	0
2	75	1.1	0
2	76	1.2	0
2	77	1.3	0
2	78	1.4	0
2	79	1.5	0
2	80	1.6	0
2	81	1.7	0
2	124	1.8	0
2	125	1.9	0
2	147	2	0
2	148	2.1	0
2	149	2.2	0
2	150	2.3	0
2	151	2.4	0
2	152	2.5	0
2	153	2.6	0
2	154	2.7	0
2	197	2.8	0
2	198	2.9	0
2	220	3	0
2	221	3.1	0
2	222	3.2	0
2	223	3.3	0
2	224	3.4	0
2	225	3.5	0
2	226	3.6	0
2	227	3.7	0
2	270	3.8	0
2	271	3.9	0
2	293	4	0
2	294	4.1	0
2	295	4.2	0
2	296	4.3	0
2	297	4.4	0
2	298	4.5	0
2	299	4.6	0
2	300	4.7	0
2	343	4.8	0
2	344	4.9	0
2	366	5	0
2	367	5.1	0
2	368	5.2	0
2	369	5.3	0
2	370	5.4	0
2	371	5.5	0
2	372	5.6	0
2	373	5.7	0
2	416	5.8	0
2	417	5.9	0
2	439	6	0
2	440	6.1	0
2	441	6.2	0
2	442	6.3	0
2	443	6.4	0
2	444	6.5	0
2	445	6.6	0
2	446	6.7	0
2	489	6.8	0
2	490	6.9	0
2	512	7	0
2	513	7.1	0
2	514	7.2	0
2	515	7.3	0
2	516	7.4	0
2	517	7.5	0
2	518	7.6	0
2	519	7.7	0
2	562	7.8	0
2	563	7.9	0
2	585	8	0
2	586	8.1	0
2	587	8.2	0
2	588	8.3	0
2	589	8.4	0
2	590	8.5	0
2	591	8.6	0
2	592	8.7	0
2	635	8.8	0
2	636	8.9	0
2	658	9	0
2	659	9.1	1
2	660	9.2	1
2	661	9.3	1
2	662	9.4	1
2	663	9.5	1
2	664	9.6	1
2	665	9.7	1
2	708	9.8	1
2	709	9.9	1
2	731	10	1
2	733	10.1	1
2	734	10.2	1
2	735	10.3	1
2	736	10.4	1
2	737	10.5	1
2	738	10.6	1
2	739	10.7	1
2	782	10.8	1
2	783	10.9	1
2	805	11	1
2	806	11.1	1
2	807	11.2	1
2	808	11.3	1
2	810	11.4	1
2	811	11.5	1
2	812	11.6	1
2	813	11.7	1
2	892	11.8	1
2	971	11.9	1
2	1050	12	1
2	1051	12.1	1
2	1052	12.2	1
2	1053	12.3	1
2	1054	12.4	1
2	1055	12.5	2
2	1056	12.6	2
2	1057	12.7	2
2	1136	12.8	2
2	1215	12.9	2
2	1294	13	2
2	1295	13.1	2
2	1296	13.2	2
2	1297	13.3	2
2	1299	13.4	2
2	1301	13.5	2
2	1302	13.6	2
2	1303	13.7	2
2	1382	13.8	2
2	1461	13.9	2
2	1540	14	2
2	1541	14.1	2
2	1542	14.2	2
2	1543	14.3	2
2	1544	14.4	2
2	1545	14.5	2
2	1546	14.6	2
2	1547	14.7	2
2	1626	14.8	2
2	1705	14.9	2
2	1784	15	2
2	1785	15.1	2
2	1786	15.2	2
2	1787	15.3	2
2	1788	15.4	2
2	1789	15.5	2
2	1790	15.6	2
2	1791	15.7	2
2	1870	15.8	2
2	1949	15.9	2
2	2028	16	2
2	2029	16.1	2
2	2030	16.2	2
2	2031	16.3	2
2	2032	16.4	2
2	2033	16.5	2
2	2034	16.6	2
2	2035	16.7	2
2	2114	16.8	2
2	2193	16.9	2
2	2272	17	2
2	2273	17.1	2
2	2274	17.2	2
2	2275	17.3	2
2	2276	17.4	2
2	2277	17.5	2
2	2278	17.6	2
2	2279	17.7	2
2	2358	17.8	2
2	2437	17.9	2
2	2516	18	2
2	2517	18.1	2
2	2518	18.2	2
2	2519	18.3	2
2	2520	18.4	2
2	2521	18.5	2
2	2522	18.6	2
2	2523	18.7	2
2	2602	18.8	2
2	2681	18.9	2
2	2760	19	2
2	2761	19.1	2
2	2762	19.2	2
2	2763	19.3	2
2	2764	19.4	2
2	2765	19.5	2
2	2766	19.6	2
2	2767	19.7	2
2	2846	19.8	2
2	2925	19.9	2
2	3004	20	2
2	3005	20.1	2
2	3006	20.2	2
2	3007	20.3	2
2	3008	20.4	2
2	3009	20.5	2
2	3010	20.6	2
2	3011	20.7	2
2	3090	20.8	2
2	3169	20.9	2
2	3248	21	2
2	3249	21.1	2
2	3250	21.2	2
2	3251	21.3	2
2	3253	21.4	2
2	3254	21.5	2
2	3255	21.6	2
2	3256	21.7	2
2	3335	21.8	2
2	3414	21.9	2
2	3493	22	2
2	3494	22.1	2
2	3495	22.2	2
2	3496	22.3	2
2	3575	22.4	2
2	3612	22.5	2
2	3670	22.6	2
2	3671	22.7	2
2	3786	22.8	2
2	3901	22.9	2
2	4016	23	2
2	4017	23.1	2
2	4018	23.2	2
2	4019	23.3	2
2	4098	23.4	2
2	4135	23.5	2
2	4193	23.6	2
2	4194	23.7	2
2	4309	23.8	2
2	4424	23.9	2
2	4539	24	2
2	4540	24.1	2
2	4541	24.2	2
2	4542	24.3	2
2	4621	24.4	2
2	4658	24.5	2
2	4712	24.6	2
2	4713	24.7	2
2	4828	24.8	2
2	4943	24.9	2
2	5046	25	2
2	5047	25.1	2
2	5048	25.2	2
2	5049	25.3	2
2	5118	25.4	2
2	5149	25.5	2
2	5199	25.6	2
2	5200	25.7	2
2	5303	25.8	2
2	5418	25.9	2
2	5521	26	2
2	5522	26.1	2
2	5523	26.2	2
2	5524	26.3	2
2	5588	26.4	2
2	5616	26.5	2
2	5662	26.6	2
2	5663	26.7	2
2	5754	26.8	2
2	5857	26.9	2
2	5909	27	2
2	5911	27.1	2
13	4	0.3	1.4276208928798
13	5	0.4	1.5553504369406
13	6	0.5	1.6547258140606
13	7	0.6	1.7983555805977
13	8	0.7	1.8323674505787
13	51	0.8	2.0110897446338
13	52	0.9	1.970451684244
13	74	1	2.244901373431
13	75	1.1	2.2119208452933
13	76	1.2	2.2548819012347
13	77	1.3	2.5345448660167
13	78	1.4	2.6013847819414
13	79	1.5	2.852151772081
13	80	1.6	2.3526342216865
13	81	1.7	3.339605186172
13	124	1.8	2.4276646371033
13	125	1.9	3.3234379637286
13	147	2	3.3108190720898
13	148	2.1	3.2988402737822
13	149	2.2	2.9578171889378
13	150	2.3	2.9959376211745
13	151	2.4	3.4908200907348
13	152	2.5	3.6670806850063
13	153	2.6	3.6268696198063
13	154	2.7	4.0205201967415
13	197	2.8	3.1988957479633
13	198	2.9	3.4137976506977
13	220	3	4.907912272511
13	221	3.1	4.5496391886597
13	222	3.2	5.1843707050129
13	223	3.3	4.1693986672107
13	224	3.4	5.6101076366628
13	225	3.5	5.0020310617087
13	226	3.6	4.0626847333335
13	227	3.7	3.8401948998282
13	270	3.8	4.3141859897661
13	271	3.9	5.9388528208016
13	293	4	4.2651793352288
13	294	4.1	4.3265655158527
13	295	4.2	4.1097063864491
13	296	4.3	5.4862156132822
13	297	4.4	4.7175385060907
13	298	4.5	4.7821076581853
13	299	4.6	5.7991102751104
13	300	4.7	5.7403782632813
13	343	4.8	5.0854349763795
13	344	4.9	5.4579137069299
13	366	5	7.2445125326224
13	367	5.1	0.973
13	368	5.2	0.973
13	369	5.3	0.973
13	370	5.4	0.973
13	371	5.5	5.686432436467
13	372	5.6	4.6049074462096
13	373	5.7	5.2063637503468
13	416	5.8	0.973
13	417	5.9	0.973
13	439	6	6.094530060055
13	440	6.1	6.0369658303075
13	441	6.2	0.973
13	442	6.3	0.973
13	443	6.4	0.973
13	444	6.5	0.973
13	445	6.6	5.7676496101165
13	446	6.7	6.5621874037011
13	489	6.8	5.680264526665
13	490	6.9	7.0692030897368
13	512	7	7.5872444749899
13	513	7.1	6.803032202652
13	514	7.2	5.9951135664759
13	515	7.3	7.6131172283278
13	516	7.4	6.2278257942338
13	517	7.5	7.6423635781627
13	518	7.6	6.4227225542391
13	519	7.7	7.3248973071784
13	562	7.8	5.4609469334441
13	563	7.9	5.665445303226
13	585	8	6.530929750505
13	586	8.1	7.4779258243095
13	587	8.2	0.973
13	588	8.3	6.745061161026
13	589	8.4	7.4899434375927
13	590	8.5	5.861227080939
13	591	8.6	6.6977289333542
13	592	8.7	9.0984278427297
13	635	8.8	9.4230705420084
13	636	8.9	5.943689063175
13	658	9	7.2225060010938
13	659	9.1	7.3670531041638
13	660	9.2	8.2238624859784
13	661	9.3	9.9248472214659
13	662	9.4	6.6159594483734
13	663	9.5	10.093761208989
13	664	9.6	8.4595815168398
13	665	9.7	10.557673907735
13	708	9.8	6.9233968672446
13	709	9.9	7.0154234708024
13	731	10	9.9241118070867
13	733	10.1	8.7142051090973
13	734	10.2	8.9044535120393
13	735	10.3	8.7765914464506
13	736	10.4	7.2031333195686
13	737	10.5	9.0713116802532
13	738	10.6	10.818649482145
13	739	10.7	8.7408656312719
13	782	10.8	11.235149626655
13	783	10.9	12.063320091314
13	805	11	9.9585828559557
13	806	11.1	10.707713074309
13	807	11.2	7.9489249446823
13	808	11.3	9.3963318654651
13	810	11.4	11.027685055647
13	811	11.5	13.192035367896
13	812	11.6	10.630222112217
13	813	11.7	10.015039908852
13	892	11.8	10.968174740878
13	971	11.9	8.5925320175481
13	1050	12	10.748551143941
13	1051	12.1	8.9867811313089
13	1052	12.2	13.624021168066
13	1053	12.3	13.790156131388
13	1054	12.4	9.8788890633589
13	1055	12.5	11.615042443289
13	1056	12.6	8.9718121637565
13	1057	12.7	12.420836742045
13	1136	12.8	12.154916051988
13	1215	12.9	13.431992960331
13	1294	13	13.995095904849
13	1295	13.1	10.931886678909
13	1296	13.2	0.973
13	1297	13.3	3.274387981678
13	1299	13.4	6.2905218789762
13	1301	13.5	15.862357600834
13	1302	13.6	10.845621180293
13	1303	13.7	14.46634181624
13	1382	13.8	12.504828055439
13	1461	13.9	16.431296002128
13	1540	14	4.7343260961206
13	1541	14.1	4.9551427037542
13	1542	14.2	2.3468139612583
13	1543	14.3	3.6485890028377
13	1544	14.4	3.5272534646021
13	1545	14.5	1.7321582364632
13	1546	14.6	0.973
13	1547	14.7	8.9423718424591
13	1626	14.8	1.7331703767656
13	1705	14.9	4.9451573644857
13	1784	15	0.973
13	1785	15.1	3.6334934669572
13	1786	15.2	6.1031803081037
13	1787	15.3	1.720527035188
13	1788	15.4	1.5480238603064
13	1789	15.5	2.96616648969
13	1790	15.6	6.431883022996
13	1791	15.7	0.973
13	1870	15.8	3.7843140968547
13	1949	15.9	7.4732006644885
13	2028	16	0.973
13	2029	16.1	3.8967553662274
13	2030	16.2	2.7454349664751
13	2031	16.3	4.8180645897993
13	2032	16.4	5.2856245742523
13	2033	16.5	0.973
13	2034	16.6	5.2983482687365
13	2035	16.7	4.7609411548411
13	2114	16.8	3.654574480623
13	2193	16.9	0.973
13	2272	17	6.4426589393323
13	2273	17.1	2.2721018834823
13	2274	17.2	2.6245058291238
13	2275	17.3	1.6082867874579
13	2276	17.4	4.4594012906455
13	2277	17.5	6.1317370941167
13	2278	17.6	0.973
13	2279	17.7	3.7810007122673
13	2358	17.8	2.6908539397679
13	2437	17.9	2.058255916361
13	2516	18	6.175438152166
13	2517	18.1	3.4985521967905
13	2518	18.2	3.6150542161958
13	2519	18.3	1.9849483646135
13	2520	18.4	4.8942195946498
13	2521	18.5	0.973
13	2522	18.6	5.3621964862508
13	2523	18.7	3.8292836016947
13	2602	18.8	3.7238682910569
13	2681	18.9	1.8151605131238
13	2760	19	3.5633351807576
13	2761	19.1	2.6145969160766
13	2762	19.2	1.8302997993992
13	2763	19.3	2.5590485955872
13	2764	19.4	1.0816816465565
13	2765	19.5	2.1089053639953
13	2766	19.6	9.4865000651652
13	2767	19.7	1.8513861062653
13	2846	19.8	0.973
13	2925	19.9	6.3700588702782
13	3004	20	0.973
13	3005	20.1	7.5280780284299
13	3006	20.2	0.973
13	3007	20.3	3.6867556634228
13	3008	20.4	2.0954677057977
13	3009	20.5	8.3183616192251
13	3010	20.6	1.7490643488705
13	3011	20.7	0.973
13	3090	20.8	7.2920948140881
13	3169	20.9	3.4875212875476
13	3248	21	0.87725109424881
13	3249	21.1	1.5111145624012
13	3250	21.2	6.7534189050536
13	3251	21.3	3.0080737524639
13	3253	21.4	3.250578551589
13	3254	21.5	0.70659907819515
13	3255	21.6	1.2349130165155
13	3256	21.7	6.2907721667664
13	3335	21.8	0.973
13	3414	21.9	6.1009928539917
13	3493	22	1.8181970365615
13	3494	22.1	5.3286208164062
13	3495	22.2	0.88634638308647
13	3496	22.3	0.79122787858578
13	3575	22.4	6.5191772088314
13	3612	22.5	0.973
13	3670	22.6	5.9965792695025
13	3671	22.7	0.9879951995045
13	3786	22.8	7.9378825016753
13	3901	22.9	2.124381594799
13	4016	23	0.973
13	4017	23.1	5.3643706547181
13	4018	23.2	2.2098685893534
13	4019	23.3	4.8578151832832
13	4098	23.4	1.4743289802309
13	4135	23.5	0.34575284240427
13	4193	23.6	6.288170599436
13	4194	23.7	3.9134277457325
13	4309	23.8	0.973
13	4424	23.9	6.8388144185316
13	4539	24	0.973
13	4540	24.1	7.0703367410301
13	4541	24.2	3.5756921722691
13	4542	24.3	4.5641085794731
13	4621	24.4	0.973
13	4658	24.5	4.1399770032363
13	4712	24.6	3.54149072987
13	4713	24.7	5.2668579066582
13	4828	24.8	4.2015660237588
13	4943	24.9	1.6862355223712
13	5046	25	2.1568582966361
13	5047	25.1	3.9871862185571
13	5048	25.2	0.973
13	5049	25.3	4.0985739043743
13	5118	25.4	2.2471635979437
13	5149	25.5	5.7843911298175
13	5199	25.6	4.5248475777255
13	5200	25.7	2.9748799716133
13	5303	25.8	2.2603277339119
13	5418	25.9	4.6183834043499
13	5521	26	0.973
13	5522	26.1	3.5988496727503
13	5523	26.2	2.7683266164704
13	5524	26.3	6.7142459930299
13	5588	26.4	1.9725945955517
13	5616	26.5	0.91134261663195
13	5662	26.6	3.3301853813155
13	5663	26.7	1.2693531230702
13	5754	26.8	7.5483192761466
13	5857	26.9	1.2728539190462
13	5909	27	4.3396855212777
13	5911	27.1	4.9030607490497
12	4	0.3	2.4479752470855
12	5	0.4	2.3290637582572
12	6	0.5	2.1818481258762
12	7	0.6	2.2357036410334
12	8	0.7	1.9855717337837
12	51	0.8	2.1556800054752
12	52	0.9	1.8177961522857
12	74	1	2.1703654659723
12	75	1.1	1.8999668675033
12	76	1.2	1.8135391334582
12	77	1.3	2.1003037793096
12	78	1.4	2.0311366270296
12	79	1.5	2.213205013168
12	80	1.6	1.4406950977165
12	81	1.7	2.5262731315568
12	124	1.8	1.3472384067252
12	125	1.9	2.2455468171276
12	147	2	2.1015260222834
12	148	2.1	1.979035354848
12	149	2.2	1.5707574565429
12	150	2.3	1.5441806555958
12	151	2.4	1.9124366020085
12	152	2.5	1.9760296771768
12	153	2.6	1.861542067118
12	154	2.7	2.0893797688885
12	197	2.8	1.3967243768042
12	198	2.9	1.5130976005224
12	220	3	2.5076531236758
12	221	3.1	2.16138498988
12	222	3.2	2.4867319139419
12	223	3.3	1.7573765604757
12	224	3.4	2.5737160811434
12	225	3.5	2.121286001429
12	226	3.6	1.5175942043075
12	227	3.7	1.3556982993847
12	270	3.8	1.5883962160442
12	271	3.9	2.4175439893501
12	293	4	1.4689842111664
12	294	4.1	1.4688865736127
12	295	4.2	1.3277961542364
12	296	4.3	1.9843095479766
12	297	4.4	1.5610938670114
12	298	4.5	1.5588160217507
12	299	4.6	2.0000768283615
12	300	4.7	1.9233792753657
12	343	4.8	1.5853120716521
12	344	4.9	1.71745660624
12	366	5	2.4462432491127
12	367	5.1	-1.9444444444444
12	368	5.2	-1.9444444444444
12	369	5.3	-1.9444444444444
12	370	5.4	-1.9444444444444
12	371	5.5	1.9014148032991
12	372	5.6	1.3719304058002
12	373	5.7	1.6137996934354
12	416	5.8	-1.9444444444444
12	417	5.9	-1.9444444444444
12	439	6	2.0609394765459
12	440	6.1	1.9843194504501
12	441	6.2	-1.9444444444444
12	442	6.3	-1.9444444444444
12	443	6.4	-1.9444444444444
12	444	6.5	-1.9444444444444
12	445	6.6	2.0070045632543
12	446	6.7	2.318484536279
12	489	6.8	1.8610358671751
12	490	6.9	2.4242163747549
12	512	7	2.5755732625723
12	513	7.1	2.1786166946404
12	514	7.2	1.7970738488948
12	515	7.3	2.4054226770764
12	516	7.4	1.8042755607981
12	517	7.5	2.310982198827
12	518	7.6	1.7979858017527
12	519	7.7	2.0975643285317
12	562	7.8	1.3731275021331
12	563	7.9	1.426621987205
12	585	8	1.7136336127995
12	586	8.1	2.0150650135707
12	587	8.2	-4.4457725414204
12	588	8.3	1.8030174996005
12	589	8.4	2.0318584615365
12	590	8.5	1.4269468483282
12	591	8.6	1.6930794459535
12	592	8.7	2.4709355429979
12	635	8.8	2.5217068935512
12	636	8.9	1.3392482108204
12	658	9	1.7332032753387
12	659	9.1	1.7509179581422
12	660	9.2	1.9899899177719
12	661	9.3	2.4749760633567
12	662	9.4	1.4256187772844
12	663	9.5	2.4446623841068
12	664	9.6	1.9177608020837
12	665	9.7	2.4912900930969
12	708	9.8	1.408080265345
12	709	9.9	1.416417106241
12	731	10	2.2113908558618
12	733	10.1	1.8402941390173
12	734	10.2	1.8643143628957
12	735	10.3	1.8018801861675
12	736	10.4	1.3565036435612
12	737	10.5	1.8339028015267
12	738	10.6	2.2607273241971
12	739	10.7	1.6903141299728
12	782	10.8	2.2996799521149
12	783	10.9	2.4669652404264
12	805	11	1.9065169592621
12	806	11.1	2.0617272180738
12	807	11.2	1.3650804263307
12	808	11.3	1.697279794584
12	810	11.4	2.0615669539431
12	811	11.5	2.5350605035201
12	812	11.6	1.9033346688142
12	813	11.7	1.7370669565164
12	892	11.8	1.9306441601832
12	971	11.9	1.3720268138685
12	1050	12	1.8374784495449
12	1051	12.1	1.425577513245
12	1052	12.2	2.4212828865275
12	1053	12.3	2.4189407535829
12	1054	12.4	1.5503913222812
12	1055	12.5	1.9000478969189
12	1056	12.6	1.3219005255029
12	1057	12.7	2.0262386068236
12	1136	12.8	1.9447994292015
12	1215	12.9	2.1793962880271
12	1294	13	2.2623318230501
12	1295	13.1	1.6207196623841
12	1296	13.2	-1.2780690069746
12	1297	13.3	0.079286707968471
12	1299	13.4	0.68714570504167
12	1301	13.5	2.5830774605973
12	1302	13.6	1.5633735734504
12	1303	13.7	2.249794558459
12	1382	13.8	1.8425096443389
12	1461	13.9	2.5667837712448
12	1540	14	0.31650205017701
12	1541	14.1	0.35708217306528
12	1542	14.2	-0.14241547815036
12	1543	14.3	0.10681835042778
12	1544	14.4	0.083244110457592
12	1545	14.5	-0.26013780341017
12	1546	14.6	-0.54851262180598
12	1547	14.7	1.1181748177158
12	1626	14.8	-0.26062699940521
12	1705	14.9	0.35289906084071
12	1784	15	-0.90558266225273
12	1785	15.1	0.1051535822684
12	1786	15.2	0.57573962656317
12	1787	15.3	-0.26275299564006
12	1788	15.4	-0.29521504067816
12	1789	15.5	-0.022931213304389
12	1790	15.6	0.63830545025411
12	1791	15.7	-0.92452762599567
12	1870	15.8	0.13473729249089
12	1949	15.9	0.83727012982127
12	2028	16	-0.95545114367269
12	2029	16.1	0.15618037735113
12	2030	16.2	-0.064750110008767
12	2031	16.3	0.33181254887023
12	2032	16.4	0.41925951081794
12	2033	16.5	-0.90690694102086
12	2034	16.6	0.4242862883024
12	2035	16.7	0.31960065844469
12	2114	16.8	0.10719720206687
12	2193	16.9	-0.84517803555354
12	2272	17	0.64243402169087
12	2273	17.1	-0.15659286489246
12	2274	17.2	-0.088725851150215
12	2275	17.3	-0.28314996056725
12	2276	17.4	0.26349263861775
12	2277	17.5	0.5809063274879
12	2278	17.6	-0.53890875403305
12	2279	17.7	0.13258854472078
12	2358	17.8	-0.076234093867242
12	2437	17.9	-0.19709669761358
12	2516	18	0.58982229994143
12	2517	18.1	0.076939222263199
12	2518	18.2	0.098857197561273
12	2519	18.3	-0.21251894447484
12	2520	18.4	0.342951980466
12	2521	18.5	-0.80484259088987
12	2522	18.6	0.43444364701863
12	2523	18.7	0.14025149014778
12	2602	18.8	0.11959804280195
12	2681	18.9	-0.24500808329321
12	2760	19	0.089480852708235
12	2761	19.1	-0.091883156890979
12	2762	19.2	-0.24154796393123
12	2763	19.3	-0.10151304847096
12	2764	19.4	-0.38430119191762
12	2765	19.5	-0.18641556173097
12	2766	19.6	1.2215341057396
12	2767	19.7	-0.23822521278635
12	2846	19.8	-0.53455113023521
12	2925	19.9	0.62639831847047
12	3004	20	-0.92128312424759
12	3005	20.1	0.84856651180889
12	3006	20.2	-0.68165840827859
12	3007	20.3	0.11535489524249
12	3008	20.4	-0.18962450616527
12	3009	20.5	0.99792933880817
12	3010	20.6	-0.25782440658659
12	3011	20.7	-0.61756951387505
12	3090	20.8	0.80218448834493
12	3169	20.9	0.074064940633249
12	3248	21	-0.42450909395701
12	3249	21.1	-0.30244117369875
12	3250	21.2	0.69882704727352
12	3251	21.3	-0.017473229649489
12	3253	21.4	0.028811227995895
12	3254	21.5	-0.45714444438925
12	3255	21.6	-0.35525917659982
12	3256	21.7	0.61151991584339
12	3335	21.8	-0.88171114255672
12	3414	21.9	0.57704056054352
12	3493	22	-0.24342806942293
12	3494	22.1	0.42797913032118
12	3495	22.2	-0.42227617213502
12	3496	22.3	-0.43992701189126
12	3575	22.4	0.65733882496133
12	3612	22.5	-0.55264641356189
12	3670	22.6	0.55711900060995
12	3671	22.7	-0.40248869664502
12	3786	22.8	0.92527729009745
12	3901	22.9	-0.18610870884732
12	4016	23	-0.67909586993046
12	4017	23.1	0.43540915544146
12	4018	23.2	-0.16865900044795
12	4019	23.3	0.33749554622919
12	4098	23.4	-0.30977877946572
12	4135	23.5	-0.52568001644683
12	4193	23.6	0.61277755268382
12	4194	23.7	0.15693121463993
12	4309	23.8	-0.54860435861627
12	4424	23.9	0.7161439276533
12	4539	24	-1.008258359367
12	4540	24.1	0.7621614952339
12	4541	24.2	0.092187778116219
12	4542	24.3	0.28018056028522
12	4621	24.4	-1.1156162653584
12	4658	24.5	0.203014017595
12	4712	24.6	0.087714546360047
12	4713	24.7	0.41678216170986
12	4828	24.8	0.21169433291071
12	4943	24.9	-0.26930015694816
12	5046	25	-0.17862176781055
12	5047	25.1	0.17181086733473
12	5048	25.2	-0.53445488198197
12	5049	25.3	0.19462842647918
12	5118	25.4	-0.16042037007864
12	5149	25.5	0.51624539482873
12	5199	25.6	0.27352626302743
12	5200	25.7	-0.023131764424029
12	5303	25.8	-0.15951712683307
12	5418	25.9	0.29091799401211
12	5521	26	-0.92032547581475
12	5522	26.1	0.099003584426818
12	5523	26.2	-0.060332383681079
12	5524	26.3	0.6932073272532
12	5588	26.4	-0.21437765625308
12	5616	26.5	-0.4172081651166
12	5662	26.6	0.047223102930012
12	5663	26.7	-0.34790250593797
12	5754	26.8	0.8535251754336
12	5857	26.9	-0.34813915919511
12	5909	27	0.23928727244492
12	5911	27.1	0.34554379975891
9	3	0.2	0.25286542447004
9	4	0.3	0.49766294917859
9	5	0.4	0.73056932500431
9	6	0.5	0.94875413759194
9	7	0.6	1.1723245016953
9	8	0.7	1.3708816750736
9	51	0.8	1.5864496756212
9	52	0.9	1.7682292908497
9	74	1	1.985265837447
9	75	1.1	2.1752625241973
9	76	1.2	2.3566164375431
9	77	1.3	2.5666468154741
9	78	1.4	2.769760478177
9	79	1.5	2.9910809794938
9	80	1.6	3.1351504892655
9	81	1.7	3.3877778024212
9	124	1.8	3.5225016430937
9	125	1.9	3.7470563248065
9	147	2	3.9572089270348
9	148	2.1	4.1551124625196
9	149	2.2	4.3121882081739
9	150	2.3	4.4666062737335
9	151	2.4	4.6578499339343
9	152	2.5	4.855452901652
9	153	2.6	5.0416071083638
9	154	2.7	5.2505450852527
9	197	2.8	5.3902175229331
9	198	2.9	5.5415272829853
9	220	3	5.7922925953529
9	221	3.1	6.0084310943409
9	222	3.2	6.2571042857351
9	223	3.3	6.4328419417827
9	224	3.4	6.690213549897
9	225	3.5	6.9023421500399
9	226	3.6	7.0541015704707
9	227	3.7	7.1896714004091
9	270	3.8	7.3485110220135
9	271	3.9	7.5902654209486
9	293	4	7.7371638420652
9	294	4.1	7.8840524994265
9	295	4.2	8.0168321148501
9	296	4.3	8.2152630696478
9	297	4.4	8.3713724563489
9	298	4.5	8.527254058524
9	299	4.6	8.7272617413601
9	300	4.7	8.9195996688967
9	343	4.8	9.0781308760619
9	344	4.9	9.2498765366859
9	366	5	9.4945008615972
9	367	5.1	9.3000564171527
9	368	5.2	9.1056119727083
9	369	5.3	8.9111675282638
9	370	5.4	8.7167230838194
9	371	5.5	8.9068645641493
9	372	5.6	9.0440576047293
9	373	5.7	9.2054375740729
9	416	5.8	9.0109931296284
9	417	5.9	8.816548685184
9	439	6	9.0226426328386
9	440	6.1	9.2210745778836
9	441	6.2	9.0266301334391
9	442	6.3	8.8321856889947
9	443	6.4	8.6377412445503
9	444	6.5	8.4432968001058
9	445	6.6	8.6439972564312
9	446	6.7	8.8758457100591
9	489	6.8	9.0619492967766
9	490	6.9	9.3043709342521
9	512	7	9.5619282605094
9	513	7.1	9.7797899299734
9	514	7.2	9.9594973148629
9	515	7.3	10.200039582571
9	516	7.4	10.38046713865
9	517	7.5	10.611565358533
9	518	7.6	10.791363938708
9	519	7.7	11.001120371561
9	562	7.8	11.138433121775
9	563	7.9	11.281095320495
9	585	8	11.452458681775
9	586	8.1	11.653965183132
9	587	8.2	11.20938792899
9	588	8.3	11.38968967895
9	589	8.4	11.592875525104
9	590	8.5	11.735570209937
9	591	8.6	11.904878154532
9	592	8.7	12.151971708832
9	635	8.8	12.404142398187
9	636	8.9	12.538067219269
9	658	9	12.711387546803
9	659	9.1	12.886479342617
9	660	9.2	13.085478334394
9	661	9.3	13.33297594073
9	662	9.4	13.475537818458
9	663	9.5	13.720004056869
9	664	9.6	13.911780137078
9	665	9.7	14.160909146387
9	708	9.8	14.301717172922
9	709	9.9	14.443358883546
9	731	10	14.664497969132
9	733	10.1	14.848527383034
9	734	10.2	15.034958819323
9	735	10.3	15.21514683794
9	736	10.4	15.350797202296
9	737	10.5	15.534187482449
9	738	10.6	15.760260214869
9	739	10.7	15.929291627866
9	782	10.8	16.159259623077
9	783	10.9	16.40595614712
9	805	11	16.596607843046
9	806	11.1	16.802780564854
9	807	11.2	16.939288607487
9	808	11.3	17.109016586945
9	810	11.4	17.315173282339
9	811	11.5	17.568679332691
9	812	11.6	17.759012799573
9	813	11.7	17.932719495224
9	892	11.8	18.125783911243
9	971	11.9	18.26298659263
9	1050	12	18.446734437584
9	1051	12.1	18.589292188909
9	1052	12.2	18.831420477561
9	1053	12.3	19.07331455292
9	1054	12.4	19.228353685148
9	1055	12.5	19.41835847484
9	1056	12.6	19.55054852739
9	1057	12.7	19.753172388072
9	1136	12.8	19.947652330992
9	1215	12.9	20.165591959795
9	1294	13	20.3918251421
9	1295	13.1	20.553897108339
9	1296	13.2	20.426090207641
9	1297	13.3	20.434018878438
9	1299	13.4	20.502733448942
9	1301	13.5	20.761041195002
9	1302	13.6	20.917378552347
9	1303	13.7	21.142358008193
9	1382	13.8	21.326608972627
9	1461	13.9	21.583287349751
9	1540	14	21.614937554769
9	1541	14.1	21.650645772075
9	1542	14.2	21.63640422426
9	1543	14.3	21.647086059303
9	1544	14.4	21.655410470349
9	1545	14.5	21.629396690008
9	1546	14.6	21.574545427827
9	1547	14.7	21.686362909599
9	1626	14.8	21.660300209658
9	1705	14.9	21.695590115742
9	1784	15	21.605031849517
9	1785	15.1	21.615547207744
9	1786	15.2	21.6731211704
9	1787	15.3	21.646845870836
9	1788	15.4	21.617324366768
9	1789	15.5	21.615031245438
9	1790	15.6	21.678861790463
9	1791	15.7	21.586409027864
9	1870	15.8	21.599882757113
9	1949	15.9	21.683609770095
9	2028	16	21.588064655728
9	2029	16.1	21.603682693463
9	2030	16.2	21.597207682462
9	2031	16.3	21.630388937349
9	2032	16.4	21.672314888431
9	2033	16.5	21.581624194329
9	2034	16.6	21.624052823159
9	2035	16.7	21.656012889003
9	2114	16.8	21.66673260921
9	2193	16.9	21.582214805655
9	2272	17	21.646458207824
9	2273	17.1	21.630798921335
9	2274	17.2	21.62192633622
9	2275	17.3	21.593611340163
9	2276	17.4	21.619960604025
9	2277	17.5	21.678051236773
9	2278	17.6	21.62416036137
9	2279	17.7	21.637419215842
9	2358	17.8	21.629795806455
9	2437	17.9	21.610086136694
9	2516	18	21.669068366688
9	2517	18.1	21.676762288915
9	2518	18.2	21.686648008671
9	2519	18.3	21.665396114223
9	2520	18.4	21.69969131227
9	2521	18.5	21.619207053181
9	2522	18.6	21.662651417883
9	2523	18.7	21.676676566897
9	2602	18.8	21.688636371178
9	2681	18.9	21.664135562848
9	2760	19	21.673083648119
9	2761	19.1	21.66389533243
9	2762	19.2	21.639740536037
9	2763	19.3	21.62958923119
9	2764	19.4	21.591159111998
9	2765	19.5	21.572517555825
9	2766	19.6	21.694670966399
9	2767	19.7	21.67084844512
9	2846	19.8	21.617393332097
9	2925	19.9	21.680033163944
9	3004	20	21.587904851519
9	3005	20.1	21.6727615027
9	3006	20.2	21.604595661872
9	3007	20.3	21.616131151396
9	3008	20.4	21.59716870078
9	3009	20.5	21.696961634661
9	3010	20.6	21.671179194002
9	3011	20.7	21.609422242614
9	3090	20.8	21.689640691449
9	3169	20.9	21.697047185512
9	3248	21	21.654596276117
9	3249	21.1	21.624352158747
9	3250	21.2	21.694234863474
9	3251	21.3	21.692487540509
9	3253	21.4	21.695368663309
9	3254	21.5	21.64965421887
9	3255	21.6	21.61412830121
9	3256	21.7	21.675280292794
9	3335	21.8	21.587109178538
9	3414	21.9	21.644813234593
9	3493	22	21.620470427651
9	3494	22.1	21.663268340683
9	3495	22.2	21.621040723469
9	3496	22.3	21.57704802228
9	3575	22.4	21.642781904776
9	3612	22.5	21.58751726342
9	3670	22.6	21.643229163481
9	3671	22.7	21.602980293816
9	3786	22.8	21.695508022826
9	3901	22.9	21.676897151941
9	4016	23	21.608987564948
9	4017	23.1	21.652528480493
9	4018	23.2	21.635662580448
9	4019	23.3	21.669412135071
9	4098	23.4	21.638434257124
9	4135	23.5	21.585866255479
9	4193	23.6	21.647144010748
9	4194	23.7	21.662837132212
9	4309	23.8	21.60797669635
9	4424	23.9	21.679591089116
9	4539	24	21.578765253179
9	4540	24.1	21.654981402702
9	4541	24.2	21.664200180514
9	4542	24.3	21.692218236542
9	4621	24.4	21.580656610007
9	4658	24.5	21.600958011766
9	4712	24.6	21.609729466402
9	4713	24.7	21.651407682573
9	4828	24.8	21.672577115864
9	4943	24.9	21.645647100169
9	5046	25	21.627784923388
9	5047	25.1	21.644966010122
9	5048	25.2	21.591520521923
9	5049	25.3	21.610983364571
9	5118	25.4	21.594941327564
9	5149	25.5	21.646565867046
9	5199	25.6	21.673918493349
9	5200	25.7	21.671605316907
9	5303	25.8	21.655653604223
9	5418	25.9	21.684745403625
9	5521	26	21.592712856043
9	5522	26.1	21.602613214486
9	5523	26.2	21.596579976118
9	5524	26.3	21.665900708843
9	5588	26.4	21.644462943218
9	5616	26.5	21.602742126706
9	5662	26.6	21.607464436999
9	5663	26.7	21.572674186405
9	5754	26.8	21.658026703949
9	5857	26.9	21.623212788029
9	5909	27	21.647141515274
9	5911	27.1	21.68169589525
1	2	0.1	34.933228264969
1	3	0.2	34.933228264969
1	4	0.3	34.936764554537
1	5	0.4	34.94372430516
1	6	0.5	34.953941220691
1	7	0.6	34.967209422014
1	8	0.7	34.983604225353
1	51	0.8	35.002775824542
1	52	0.9	35.024962113749
1	74	1	35.049690566871
1	75	1.1	35.077454247434
1	76	1.2	35.107875006571
1	77	1.3	35.140831976237
1	78	1.4	35.176726193001
1	79	1.5	35.215460927516
1	80	1.6	35.257290800013
1	81	1.7	35.301135465579
1	124	1.8	35.348513090758
1	125	1.9	35.397774811057
1	147	2	35.450176898926
1	148	2.1	35.505517943183
1	149	2.2	35.56362664225
1	150	2.3	35.623932024876
1	151	2.4	35.686396923757
1	152	2.5	35.75153633997
1	153	2.6	35.819439207591
1	154	2.7	35.88994541721
1	197	2.8	35.963373596843
1	198	2.9	36.038755077072
1	220	3	36.116252604314
1	221	3.1	36.197257051333
1	222	3.2	36.281284166717
1	223	3.3	36.368788943843
1	224	3.4	36.458751388882
1	225	3.5	36.552313141871
1	226	3.6	36.64884148532
1	227	3.7	36.747492164223
1	270	3.8	36.848038769293
1	271	3.9	36.950806725496
1	293	4	37.056955585042
1	294	4.1	37.165158799608
1	295	4.2	37.275416232649
1	296	4.3	37.387530571076
1	297	4.4	37.502419940202
1	298	4.5	37.619492478486
1	299	4.6	37.73874500039
1	300	4.7	37.860794603325
1	343	4.8	37.985534026778
1	344	4.9	38.112490488227
1	366	5	38.241848790059
1	367	5.1	38.37462813077
1	368	5.2	38.504688191603
1	369	5.3	38.63202897256
1	370	5.4	38.756650473639
1	371	5.5	38.87855269484
1	372	5.6	39.003114019534
1	373	5.7	39.129593970783
1	416	5.8	39.220875691007
1	417	5.9	39.277817493614
1	439	6	39.333530572925
1	440	6.1	39.390545990471
1	441	6.2	39.44881532892
1	442	6.3	39.505855944074
1	443	6.4	39.561667835933
1	444	6.5	39.616251004496
1	445	6.6	39.669605449763
1	446	6.7	39.724228150994
1	489	6.8	39.780315937003
1	490	6.9	39.837579739191
1	512	7	39.896375439675
1	513	7.1	39.95679868312
1	514	7.2	40.02857863076
1	515	7.3	40.111474180012
1	516	7.4	40.205869755525
1	517	7.5	40.311385483518
1	518	7.6	40.428341559433
1	519	7.7	40.556413813235
1	562	7.8	40.695791553041
1	563	7.9	40.84601699647
1	585	8	41.007123947483
1	586	8.1	41.179293772982
1	587	8.2	41.352736947963
1	588	8.3	41.52337077331
1	589	8.4	41.695143952168
1	590	8.5	41.868201092535
1	591	8.6	42.042159941788
1	592	8.7	42.217188673065
1	635	8.8	42.393778825174
1	636	8.9	42.571962481286
1	658	9	42.750992428213
1	659	9.1	42.931117612006
1	660	9.2	43.073673948111
1	661	9.3	43.185249593361
1	662	9.4	43.297044253422
1	663	9.5	43.408965068897
1	664	9.6	43.521102216674
1	665	9.7	43.633409070343
1	708	9.8	43.745936382479
1	709	9.9	43.858588298016
1	731	10	43.971365554695
1	733	10.1	44.084338501084
1	734	10.2	44.19747429821
1	735	10.3	44.310775071662
1	736	10.4	44.414235688085
1	737	10.5	44.507816735357
1	738	10.6	44.591560459334
1	739	10.7	44.665504630441
1	782	10.8	44.679516154505
1	783	10.9	44.679035182337
1	805	11	44.687624516803
1	806	11.1	44.705493777208
1	807	11.2	44.732584911689
1	808	11.3	44.769158480627
1	810	11.4	44.805097231644
1	811	11.5	44.840264913771
1	812	11.6	44.874484430581
1	813	11.7	44.907992060664
1	892	11.8	44.940849991601
1	971	11.9	44.972985821495
1	1050	12	45.004608484844
1	1051	12.1	44.987026833268
1	1052	12.2	44.924086891979
1	1053	12.3	44.859029623479
1	1054	12.4	44.791857075884
1	1055	12.5	44.723328765295
1	1056	12.6	44.710126345712
1	1057	12.7	44.638836962043
1	1136	12.8	44.565776283594
1	1215	12.9	44.491015502766
1	1294	13	44.414349539964
1	1295	13.1	44.335705894704
1	1296	13.2	44.255645450718
1	1297	13.3	44.176702267529
1	1299	13.4	44.097689773582
1	1301	13.5	44.018076591446
1	1302	13.6	43.936205337824
1	1303	13.7	43.85296741621
1	1382	13.8	43.757801035786
1	1461	13.9	43.651062236378
1	1540	14	43.532117872921
1	1541	14.1	43.402935093926
1	1542	14.2	43.263478425114
1	1543	14.3	43.124146252889
1	1544	14.4	42.974758966168
1	1545	14.5	42.815337173049
1	1546	14.6	42.646181050715
1	1547	14.7	42.467542690309
1	1626	14.8	42.27796510905
1	1705	14.9	42.088615362382
1	1784	15	41.898957118845
1	1785	15.1	41.71009051645
1	1786	15.2	41.521131991025
1	1787	15.3	41.331670166239
1	1788	15.4	41.142438034545
1	1789	15.5	40.953463973573
1	1790	15.6	40.764509958581
1	1791	15.7	40.574997950513
1	1870	15.8	40.386294144872
1	1949	15.9	40.197472554749
1	2028	16	40.007919040851
1	2029	16.1	39.819200762062
1	2030	16.2	39.630345953703
1	2031	16.3	39.441547748515
1	2032	16.4	39.25245947984
1	2033	16.5	39.0630047034
1	2034	16.6	38.874342725757
1	2035	16.7	38.685309846048
1	2114	16.8	38.495997578227
1	2193	16.9	38.306591600887
1	2272	17	38.117924460246
1	2273	17.1	37.928695717419
1	2274	17.2	37.739603864751
1	2275	17.3	37.550589574339
1	2276	17.4	37.361822807612
1	2277	17.5	37.172825701214
1	2278	17.6	36.983320778835
1	2279	17.7	36.794286959049
1	2358	17.8	36.605137233172
1	2437	17.9	36.416054149521
1	2516	18	36.22714336362
1	2517	18.1	36.037716967584
1	2518	18.2	35.848223312913
1	2519	18.3	35.658643239379
1	2520	18.4	35.469248945395
1	2521	18.5	35.279554850069
1	2522	18.6	35.090543861623
1	2523	18.7	34.90097411851
1	2602	18.8	34.711281641396
[...]
132	33975	96.6	240.37163663655
132	33976	96.7	238.92874375722
132	34023	96.8	237.49587733188
132	34024	96.9	236.05721014142
132	34160	97	234.61646753969
132	34161	97.1	233.1695923734
132	34207	97.2	231.72517775654
132	34208	97.3	230.28748234454
132	34209	97.4	228.84275806781
132	34210	97.5	227.40264149044
132	34289	97.6	225.95361505272
132	34290	97.7	224.50401819841
132	34291	97.8	223.06032349711
132	34292	97.9	221.61078843858
132	34410	98	220.16526834805
132	34411	98.1	218.71565739403
132	34451	98.2	217.26498674823
132	34452	98.3	215.81646837509
132	34453	98.4	214.37010932074
132	34454	98.5	212.92074017185
132	34533	98.6	211.48129964158
132	34534	98.7	210.03434604578
132	34535	98.8	208.58633508927
132	34536	98.9	207.1380112068
132	34655	99	205.69835951659
132	34656	99.1	204.25349414622
132	34696	99.2	202.80895678604
132	34697	99.3	201.36156750532
132	34698	99.4	199.91562068952
132	34699	99.5	198.46795731928
132	34778	99.6	197.02196225428
132	34779	99.7	195.58029682625
132	34780	99.8	194.13086905915
132	34781	99.9	192.68954733994
132	34899	100	191.24173444062
152	30718	88.9	2
152	30898	89	2
152	30899	89.1	2
152	30957	89.2	2
152	30958	89.3	2
152	31022	89.4	2
152	31023	89.5	2
152	31150	89.6	2
152	31151	89.7	2
152	31260	89.8	2
152	31324	89.9	2
152	31494	90	2
152	31495	90.1	2
152	31549	90.2	2
152	31550	90.3	2
152	31596	90.4	2
152	31597	90.5	2
152	31712	90.6	2
152	31713	90.7	2
152	31771	90.8	2
152	31829	90.9	2
152	31993	91	2
152	31994	91.1	2
152	32044	91.2	2
152	32045	91.3	2
152	32091	91.4	2
152	32092	91.5	2
152	32207	91.6	2
152	32208	91.7	2
152	32266	91.8	2
152	32312	91.9	2
152	32464	92	2
152	32465	92.1	2
152	32513	92.2	2
152	32514	92.3	2
152	32515	92.4	2
152	32516	92.5	2
152	32619	92.6	2
152	32620	92.7	2
152	32672	92.8	2
152	32712	92.9	2
152	32858	93	2
152	32859	93.1	2
152	32905	93.2	2
152	32906	93.3	2
152	32907	93.4	2
152	32908	93.5	2
152	32999	93.6	2
152	33000	93.7	2
152	33046	93.8	2
152	33047	93.9	2
152	33183	94	2
152	33184	94.1	2
152	33230	94.2	2
152	33231	94.3	2
152	33232	94.4	2
152	33233	94.5	2
152	33324	94.6	2
152	33325	94.7	2
152	33371	94.8	2
152	33372	94.9	2
152	33508	95	2
152	33509	95.1	2
152	33555	95.2	2
152	33556	95.3	2
152	33557	95.4	2
152	33558	95.5	2
152	33649	95.6	2
152	33650	95.7	2
152	33696	95.8	2
152	33697	95.9	2
152	33833	96	2
152	33834	96.1	2
152	33881	96.2	2
152	33882	96.3	2
152	33883	96.4	2
152	33884	96.5	2
152	33975	96.6	2
152	33976	96.7	2
152	34023	96.8	2
152	34024	96.9	2
152	34160	97	2
152	34161	97.1	2
152	34207	97.2	2
152	34208	97.3	2
152	34209	97.4	2
152	34210	97.5	2
152	34289	97.6	2
152	34290	97.7	2
152	34291	97.8	2
152	34292	97.9	2
152	34410	98	2
152	34411	98.1	2
152	34451	98.2	2
152	34452	98.3	2
152	34453	98.4	2
152	34454	98.5	2
152	34533	98.6	2
152	34534	98.7	2
152	34535	98.8	2
152	34536	98.9	2
152	34655	99	2
152	34656	99.1	2
152	34696	99.2	2
152	34697	99.3	2
152	34698	99.4	2
152	34699	99.5	2
152	34778	99.6	2
152	34779	99.7	2
152	34780	99.8	2
152	34781	99.9	2
152	34899	100	2
161	30899	89.1	1.4434856829073
161	30957	89.2	1.5328198948985
161	30958	89.3	1.657702425199
161	31022	89.4	1.8861646867288
161	31023	89.5	2.0067848068207
161	31150	89.6	2.1429270686529
161	31151	89.7	2.2229205159314
161	31260	89.8	2.4256270397247
161	31324	89.9	2.220399757376
161	31494	90	2.8264909214948
161	31495	90.1	2.1508631682212
161	31549	90.2	2.5927707242886
161	31550	90.3	2.3852324716892
161	31596	90.4	2.8296333165417
161	31597	90.5	2.5317959099427
161	31712	90.6	2.7462736184011
161	31713	90.7	2.5442061547307
161	31771	90.8	2.6140486973118
161	31829	90.9	2.8649813439331
161	31993	91	3.2661617036023
161	31994	91.1	3.298012391836
161	32044	91.2	3.8577456590558
161	32045	91.3	3.0404927851176
161	32091	91.4	3.801523648502
161	32092	91.5	4.5891374229831
161	32207	91.6	4.6306345288747
161	32208	91.7	4.7420262293829
161	32266	91.8	4.1185738018253
161	32312	91.9	3.5018699348324
161	32464	92	5.0206521054626
161	32465	92.1	3.6668637485477
161	32513	92.2	3.5849239455605
161	32514	92.3	4.9906360124269
161	32515	92.4	4.8577697972274
161	32516	92.5	4.2041520645006
161	32619	92.6	5.0023615121251
161	32620	92.7	4.1791718823995
161	32672	92.8	4.4104030781885
161	32712	92.9	5.5615273708995
161	32858	93	6.1855674444404
161	32859	93.1	4.200387718359
161	32905	93.2	5.2384152315985
161	32906	93.3	6.2378002701461
161	32907	93.4	4.555168915005
161	32908	93.5	5.6660695771536
161	32999	93.6	6.3463326223184
161	33000	93.7	5.4132136670602
161	33046	93.8	5.5959438438078
161	33047	93.9	4.7938995825466
161	33183	94	7.6884209027906
161	33184	94.1	5.2206164594745
161	33230	94.2	6.017297598594
161	33231	94.3	7.7700263427634
161	33232	94.4	7.0572693125209
161	33233	94.5	8.4033013513932
161	33324	94.6	5.6842301460397
161	33325	94.7	8.5219159070707
161	33371	94.8	8.2486775256044
161	33372	94.9	6.5611165712107
161	33508	95	6.4458035850833
161	33509	95.1	8.6187994029711
161	33555	95.2	9.0131162544352
161	33556	95.3	6.7335214921605
161	33557	95.4	9.8127802941191
161	33558	95.5	8.6939098982105
161	33649	95.6	9.9184165349322
161	33650	95.7	6.2570539535412
161	33696	95.8	6.7177836589711
161	33697	95.9	9.8518032006535
161	33833	96	9.0103111882477
161	33834	96.1	7.4868710954889
161	33881	96.2	6.6010161635384
161	33882	96.3	7.1615008469394
161	33883	96.4	6.9970391025892
161	33884	96.5	7.4821186101826
161	33975	96.6	9.8385180122659
161	33976	96.7	8.5883510094267
161	34023	96.8	8.3441233232817
161	34024	96.9	9.8762006644133
161	34160	97	9.0543632617141
161	34161	97.1	7.3137984644797
161	34207	97.2	10.634772616405
161	34208	97.3	7.7258736023597
161	34209	97.4	7.4461579736027
161	34210	97.5	9.5884196318885
161	34289	97.6	7.9644811560801
161	34290	97.7	0.973
161	34291	97.8	0.973
161	34292	97.9	0.973
161	34410	98	0.973
161	34411	98.1	0.973
161	34451	98.2	0.973
161	34452	98.3	11.740101016838
161	34453	98.4	7.803681052129
161	34454	98.5	0.973
161	34533	98.6	0.973
161	34534	98.7	0.973
161	34535	98.8	0.973
161	34536	98.9	11.192512184709
161	34655	99	7.1384285307875
161	34656	99.1	7.151612913735
161	34696	99.2	11.650854024054
161	34697	99.3	9.0781015639673
161	34698	99.4	10.545816342975
161	34699	99.5	12.302728357791
161	34778	99.6	8.2942964374927
161	34779	99.7	9.3662222139624
161	34780	99.8	12.716381789325
161	34781	99.9	10.74744794783
161	34899	100	11.128740589368
160	30899	89.1	2.5528347093955
160	30957	89.2	2.2206167787169
160	30958	89.3	2.2041440253858
160	31022	89.4	2.4952157801546
160	31023	89.5	2.3939363721389
160	31150	89.6	2.3645238825283
160	31151	89.7	2.2365017335981
160	31260	89.8	2.3607906789848
160	31324	89.9	1.7928191507551
160	31494	90	2.5722259696179
160	31495	90.1	1.3930831528967
160	31549	90.2	1.9196772748604
160	31550	90.3	1.5305726647144
160	31596	90.4	1.9911945157219
160	31597	90.5	1.5290071355877
160	31712	90.6	1.6953892215155
160	31713	90.7	1.397596843564
160	31771	90.8	1.4135863508796
160	31829	90.9	1.6076153847156
160	31993	91	1.9199519674061
160	31994	91.1	1.8593916001264
160	32044	91.2	2.2603364147013
160	32045	91.3	1.4719840038335
160	32091	91.4	2.0377473613946
160	32092	91.5	2.5524718490662
160	32207	91.6	2.4587506491924
160	32208	91.7	2.4252536500804
160	32266	91.8	1.9012198251206
160	32312	91.9	1.4273883907124
160	32464	92	2.3674880616367
160	32465	92.1	1.4349731333554
160	32513	92.2	1.3485468274914
160	32514	92.3	2.1582939465065
160	32515	92.4	2.0097885918105
160	32516	92.5	1.5795312648173
160	32619	92.6	1.9814321372425
160	32620	92.7	1.4804879121948
160	32672	92.8	1.5701920433436
160	32712	92.9	2.1286481024697
160	32858	93	2.3781244777842
160	32859	93.1	1.3333436881425
160	32905	93.2	1.8110908558825
160	32906	93.3	2.2374039358925
160	32907	93.4	1.4007745172363
160	32908	93.5	1.8799652126385
160	32999	93.6	2.1371111720568
160	33000	93.7	1.678664955264
160	33046	93.8	1.7225140669849
160	33047	93.9	1.3490847525187
160	33183	94	2.5204155154759
160	33184	94.1	1.4595788102597
160	33230	94.2	1.7526089126477
160	33231	94.3	2.4003917556023
160	33232	94.4	2.0701145995408
160	33233	94.5	2.5260652819183
160	33324	94.6	1.4683362108655
160	33325	94.7	2.4697171440581
160	33371	94.8	2.31493837866
160	33372	94.9	1.6787163176108
160	33508	95	1.6107510685222
160	33509	95.1	2.3178565512877
160	33555	95.2	2.3981506027048
160	33556	95.3	1.6060297936667
160	33557	95.4	2.5672732420731
160	33558	95.5	2.160269686114
160	33649	95.6	2.4961485061329
160	33650	95.7	1.3300763600972
160	33696	95.8	1.4529418105492
160	33697	95.9	2.3671413875883
160	33833	96	2.0753472786164
160	33834	96.1	1.5989539423957
160	33881	96.2	1.3219984472729
160	33882	96.3	1.4657343338244
160	33883	96.4	1.4003855479183
160	33884	96.5	1.5184080298757
160	33975	96.6	2.146488922555
160	33976	96.7	1.7716774778208
160	34023	96.8	1.6805219478207
160	34024	96.9	2.0633636230137
160	34160	97	1.8156245996943
160	34161	97.1	1.3378746857401
160	34207	97.2	2.1753944380442
160	34208	97.3	1.4033174558543
160	34209	97.4	1.3164654913358
160	34210	97.5	1.8369653884555
160	34289	97.6	1.4104369877605
160	34290	97.7	-1.9444444444444
160	34291	97.8	-1.9444444444444
160	34292	97.9	-1.9444444444444
160	34410	98	-1.9444444444444
160	34411	98.1	-1.9444444444444
160	34451	98.2	-1.9444444444444
160	34452	98.3	2.522286084434
160	34453	98.4	1.4611679078545
160	34454	98.5	-1.9444444444444
160	34533	98.6	-1.9444444444444
160	34534	98.7	-1.9444444444444
160	34535	98.8	-1.9444444444444
160	34536	98.9	2.4494224134833
160	34655	99	1.3323609956773
160	34656	99.1	1.3205186298117
160	34696	99.2	2.4748210818972
160	34697	99.3	1.7731881704414
160	34698	99.4	2.1199196438072
160	34699	99.5	2.5233349654125
160	34778	99.6	1.4926949694287
160	34779	99.7	1.7373426560778
160	34780	99.8	2.5212886771886
160	34781	99.9	2.010692200088
160	34899	100	2.0711607097881
155	30898	89	0.24733512884355
155	30899	89.1	0.5026185997831
155	30957	89.2	0.7246802776548
155	30958	89.3	0.94509468019338
155	31022	89.4	1.1946162582088
155	31023	89.5	1.4340098954227
155	31150	89.6	1.6704622836756
155	31151	89.7	1.8941124570354
155	31260	89.8	2.1301915249338
155	31324	89.9	2.3094734400094
155	31494	90	2.5666960369711
155	31495	90.1	2.7060043522608
155	31549	90.2	2.8979720797469
155	31550	90.3	3.0510293462183
155	31596	90.4	3.2501487977905
155	31597	90.5	3.4030495113493
155	31712	90.6	3.5725884335008
155	31713	90.7	3.7123481178572
155	31771	90.8	3.8537067529452
155	31829	90.9	4.0144682914167
155	31993	91	4.2064634881573
155	31994	91.1	4.39240264817
155	32044	91.2	4.6184362896401
155	32045	91.3	4.7656346900235
155	32091	91.4	4.9694094261629
155	32092	91.5	5.2246566110695
155	32207	91.6	5.4705316759888
155	32208	91.7	5.7130570409968
155	32266	91.8	5.9031790235089
155	32312	91.9	6.0459178625801
155	32464	92	6.2826666687438
155	32465	92.1	6.4261639820793
155	32513	92.2	6.5610186648285
155	32514	92.3	6.7768480594791
155	32515	92.4	6.9778269186602
155	32516	92.5	7.1357800451419
155	32619	92.6	7.3339232588662
155	32620	92.7	7.4819720500856
155	32672	92.8	7.63899125442
155	32712	92.9	7.851856064667
155	32858	93	8.0896685124454
155	32859	93.1	8.2230028812596
155	32905	93.2	8.4041119668479
155	32906	93.3	8.6278523604371
155	32907	93.4	8.7679298121608
155	32908	93.5	8.9559263334246
155	32999	93.6	9.1696374506303
155	33000	93.7	9.3375039461567
155	33046	93.8	9.5097553528552
155	33047	93.9	9.644663828107
155	33183	94	9.8967053796546
155	33184	94.1	10.042663260681
155	33230	94.2	10.217924151945
155	33231	94.3	10.457963327506
155	33232	94.4	10.66497478746
155	33233	94.5	10.917581315651
155	33324	94.6	11.064414936738
155	33325	94.7	11.311386651144
155	33371	94.8	11.54288048901
155	33372	94.9	11.710752120771
155	33508	95	11.871827227623
155	33509	95.1	12.103612882752
155	33555	95.2	12.343427943022
155	33556	95.3	12.504030922389
155	33557	95.4	12.760758246596
155	33558	95.5	12.976785215208
155	33649	95.6	13.226400065821
155	33650	95.7	13.359407701831
155	33696	95.8	13.504701882886
155	33697	95.9	13.741416021645
155	33833	96	13.948950749506
155	33834	96.1	14.108846143746
155	33881	96.2	14.241045988473
155	33882	96.3	14.387619421856
155	33883	96.4	14.527657976647
155	33884	96.5	14.679498779635
155	33975	96.6	14.89414767189
155	33976	96.7	15.071315419672
155	34023	96.8	15.239367614455
155	34024	96.9	15.445703976756
155	34160	97	15.627266436725
155	34161	97.1	15.761053905299
155	34207	97.2	15.978593349104
155	34208	97.3	16.118925094689
155	34209	97.4	16.250571643823
155	34210	97.5	16.434268182668
155	34289	97.6	16.575311881444
155	34290	97.7	16.380867437
155	34291	97.8	16.186422992555
155	34292	97.9	15.991978548111
155	34410	98	15.797534103667
155	34411	98.1	15.603089659222
155	34451	98.2	15.408645214778
155	34452	98.3	15.660873823221
155	34453	98.4	15.806990614007
155	34454	98.5	15.612546169562
155	34533	98.6	15.418101725118
155	34534	98.7	15.223657280673
155	34535	98.8	15.029212836229
155	34536	98.9	15.274155077577
155	34655	99	15.407391177145
155	34656	99.1	15.539443040126
155	34696	99.2	15.786925148316
155	34697	99.3	15.96424396536
155	34698	99.4	16.176235929741
155	34699	99.5	16.428569426282
155	34778	99.6	16.577838923225
155	34779	99.7	16.751573188833
155	34780	99.8	17.003702056551
155	34781	99.9	17.20477127656
155	34899	100	17.411887347539
151	30718	88.9	41.274438159653
151	30898	89	41.274438159653
151	30899	89.1	41.277902976403
151	30957	89.2	41.284943954981
151	30958	89.3	41.295095704861
151	31022	89.4	41.308335150038
151	31023	89.5	41.325070041038
151	31150	89.6	41.345158499677
151	31151	89.7	41.368559323201
151	31260	89.8	41.395093170613
151	31324	89.9	41.424934153216
151	31494	90	41.457286622907
151	31495	90.1	41.493242418849
151	31549	90.2	41.531149728054
151	31550	90.3	41.571746234709
151	31596	90.4	41.614486858065
151	31597	90.5	41.660016864451
151	31712	90.6	41.707688794453
151	31713	90.7	41.757735725936
151	31771	90.8	41.809740493726
151	31829	90.9	41.863725496871
151	31993	91	41.919962542717
151	31994	91.1	41.978889170817
151	32044	91.2	42.040420544629
151	32045	91.3	42.105118331359
151	32091	91.4	42.17187816033
151	32092	91.5	42.241492586311
151	32207	91.6	42.314682665801
151	32208	91.7	42.391317108604
151	32266	91.8	42.47134899014
151	32312	91.9	42.554044212839
151	32464	92	42.638739005607
151	32465	92.1	42.726750315657
151	32513	92.2	42.816771820931
151	32514	92.3	42.90868245035
151	32515	92.4	43.003616545563
151	32516	92.5	43.101366071487
151	32619	92.6	43.201328298215
151	32620	92.7	43.304066232256
151	32672	92.8	43.408878121316
151	32712	92.9	43.515889628246
151	32858	93	43.625883071318
151	32859	93.1	43.739207931793
151	32905	93.2	43.854400618956
151	32906	93.3	43.972130389292
151	32907	93.4	44.092994447373
151	32908	93.5	44.215820793235
151	32999	93.6	44.341280705542
151	33000	93.7	44.46973440956
151	33046	93.8	44.600539686717
151	33047	93.9	44.733757963444
151	33183	94	44.868866117872
151	33184	94.1	45.007505019402
151	33230	94.2	45.148188585245
151	33231	94.3	45.291327309296
151	33232	94.4	45.437828644069
151	33233	94.5	45.577753504705
151	33324	94.6	45.646576845746
151	33325	94.7	45.716325811253
151	33371	94.8	45.787631661755
151	33372	94.9	45.860396826265
151	33508	95	45.934220236758
151	33509	95.1	46.00905904862
151	33555	95.2	46.085359014076
151	33556	95.3	46.163170749696
151	33557	95.4	46.241994910439
151	33558	95.5	46.322437454567
151	33649	95.6	46.404241811105
151	33650	95.7	46.487619714704
151	33696	95.8	46.571836085142
151	33697	95.9	46.656968375571
151	33833	96	46.743592888262
151	33834	96.1	46.831525679129
151	33881	96.2	46.920466434574
151	33882	96.3	47.010240564622
151	33883	96.4	47.100938678939
151	33884	96.5	47.192519582305
151	33975	96.6	47.28505767491
151	33976	96.7	47.378948892672
151	34023	96.8	47.473956958201
151	34024	96.9	47.570024407965
151	34160	97	47.667392581526
151	34161	97.1	47.765905306681
151	34207	97.2	47.826307770138
151	34208	97.3	47.840345458458
151	34209	97.4	47.854506432556
151	34210	97.5	47.868783062218
151	34289	97.6	47.883221074969
151	34290	97.7	47.89778299897
151	34291	97.8	47.912174097515
151	34292	97.9	47.926394370603
151	34410	98	47.940443818235
151	34411	98.1	47.95432244041
151	34451	98.2	47.968030237128
151	34452	98.3	47.981567208389
151	34453	98.4	47.995325770282
151	34454	98.5	48.009212700293
151	34533	98.6	48.007464105206
151	34534	98.7	47.949487489301
151	34535	98.8	47.892242041932
151	34536	98.9	47.835727763099
151	34655	99	47.7782924291
151	34656	99.1	47.720356088018
151	34696	99.2	47.661923192932
151	34697	99.3	47.592566760962
151	34698	99.4	47.512550626804
151	34699	99.5	47.421744409184
151	34778	99.6	47.319996412027
151	34779	99.7	47.207694186409
151	34780	99.8	47.084745737575
151	34781	99.9	46.950856278668
151	34899	100	46.806217809044
150	30718	88.9	460.45902203295
150	30898	89	460.45902203295
150	30899	89.1	460.43452626263
150	30957	89.2	460.38474752786
150	30958	89.3	460.31297607462
150	31022	89.4	460.21937504704
150	31023	89.5	460.10106170588
150	31150	89.6	459.95903911007
150	31151	89.7	459.79359855733
150	31260	89.8	459.60600796345
150	31324	89.9	459.39503638585
150	31494	90	459.16630894543
150	31495	90.1	458.91210649189
150	31549	90.2	458.64410711224
150	31550	90.3	458.35709548236
150	31596	90.4	458.05492524698
150	31597	90.5	457.7330344633
150	31712	90.6	457.39600057894
150	31713	90.7	457.04217576594
150	31771	90.8	456.6745093238
150	31829	90.9	456.29284289437
150	31993	91	455.89525483772
150	31994	91.1	455.47865181031
150	32044	91.2	455.04363359466
150	32045	91.3	454.58622928209
150	32091	91.4	454.11424661898
150	32092	91.5	453.62208235387
150	32207	91.6	453.10463871803
150	32208	91.7	452.56284391482
150	32266	91.8	451.99702969446
150	32312	91.9	451.4123860242
150	32464	92	450.81360567293
150	32465	92.1	450.19137800787
150	32513	92.2	449.55493854344
150	32514	92.3	448.90514323525
150	32515	92.4	448.23397244634
150	32516	92.5	447.54289695568
150	32619	92.6	446.83617797949
150	32620	92.7	446.10983514042
150	32672	92.8	445.36882972914
150	32712	92.9	444.61227332685
150	32858	93	443.83463505268
150	32859	93.1	443.03344412293
150	32905	93.2	442.21904791948
150	32906	93.3	441.38671489247
150	32907	93.4	440.53222288903
150	32908	93.5	439.66385778515
150	32999	93.6	438.77687373447
150	33000	93.7	437.86872399469
150	33046	93.8	436.94394896137
150	33047	93.9	436.00211435825
150	33183	94	435.04691858383
150	33184	94.1	434.06676092071
150	33230	94.2	433.07214776659
150	33231	94.3	432.06017698697
150	33232	94.4	431.02443301938
150	33233	94.5	429.9672189455
150	33324	94.6	428.87736310492
150	33325	94.7	427.77284948669
150	33371	94.8	426.64368172963
150	33372	94.9	425.49140492452
150	33508	95	424.32237020636
150	33509	95.1	423.13725604341
150	33555	95.2	421.92900370154
150	33556	95.3	420.69681163926
150	33557	95.4	419.44858726268
150	33558	95.5	418.17473488613
150	33649	95.6	416.87931745348
150	33650	95.7	415.55898202893
150	33696	95.8	414.22536901617
150	33697	95.9	412.87725190152
150	33833	96	411.50550461831
150	33834	96.1	410.1130400234
150	33881	96.2	408.7046137494
150	33882	96.3	407.28299052557
150	33883	96.4	405.84673549751
150	33884	96.5	404.39650101444
150	33975	96.6	402.93110890797
150	33976	96.7	401.44428931293
150	34023	96.8	399.93978381301
150	34024	96.9	398.41850237521
150	34160	97	396.87662325344
150	34161	97.1	395.31661952131
150	34207	97.2	393.74186036983
150	34208	97.3	392.14366955457
150	34209	97.4	390.53144265353
150	34210	97.5	388.90604836653
150	34289	97.6	387.26228061482
150	34290	97.7	385.60440556723
150	34291	97.8	383.96597899789
150	34292	97.9	382.3470009068
150	34410	98	380.74747129396
150	34411	98.1	379.16739015937
150	34451	98.2	377.60675750302
150	34452	98.3	376.06557332493
150	34453	98.4	374.49916105344
150	34454	98.5	372.91813407163
150	34533	98.6	371.35677842444
150	34534	98.7	369.81567907606
150	34535	98.8	368.29401520762
150	34536	98.9	366.79178681911
150	34655	99	365.26507549909
150	34656	99.1	363.72504671172
150	34696	99.2	362.17181882608
150	34697	99.3	360.59423007637
150	34698	99.4	358.99929355697
150	34699	99.5	357.38354355169
150	34778	99.6	355.74294776717
150	34779	99.7	354.0878078518
150	34780	99.8	352.41567845663
150	34781	99.9	350.71872373567
150	34899	100	349.00204729969
170	34899	100	2
169	34899	100	41.274438159653
168	34899	100	460.45902203295

