version 2
run General-0-20240702-05:15:36-11128
attr configname General
attr datetime 20240702-05:15:36
attr experiment General
attr inifile omnetpp.ini
attr iterationvars ""
attr iterationvarsf ""
attr measurement ""
attr network intersectionScenario
attr processid 11128
attr repetition 0
attr replication #0
attr resultdir results
attr runnumber 0
attr seedset 0
param **.debug false
param **.coreDebug false
param *.playgroundSizeX 200m
param *.playgroundSizeY 200m
param *.playgroundSizeZ 50m
param *.annotations.draw true
param *.manager.updateInterval 0.1s
param *.manager.host "\"localhost\""
param *.manager.port 9999
param *.manager.autoShutdown false
param *.manager.launchConfig "xmldoc(\"intersection.launchd.xml\")"
param *.connectionManager.sendDirect true
param *.connectionManager.maxInterfDist 420m
param *.connectionManager.drawMaxIntfDist true
param *.**.nic.mac1609_4.useServiceChannel false
param *.**.nic.mac1609_4.txPower 20mW
param *.**.nic.mac1609_4.bitrate 6Mbps
param *.**.nic.phy80211p.minPowerLevel -89dBm
param *.**.nic.phy80211p.useNoiseFloor true
param *.**.nic.phy80211p.noiseFloor -98dBm
param *.**.nic.phy80211p.decider "xmldoc(\"config.xml\")"
param *.**.nic.phy80211p.analogueModels "xmldoc(\"config.xml\")"
param *.**.nic.phy80211p.usePropagationDelay true
param *.**.nic.phy80211p.antenna "xmldoc(\"antenna.xml\", \"/root/Antenna[@id='monopole']\")"
param *.node[*].nic.phy80211p.antennaOffsetY "0 m"
param *.node[*].nic.phy80211p.antennaOffsetZ "1.895 m"
param *.node[*].applType "\"JosephVeinsApp\""
param *.node[*].appl.headerLength "80 bit"
param *.node[*].appl.sendBeacons true
param *.node[*].appl.dataOnSch false
param *.node[*].appl.beaconInterval 1s
param *.node[*].appl.serialNumber "\"HighWayScenario-ITSG5\""
param *.node[*].appl.savePath "\"../../../f2md-results/\""
param *.node[*].appl.UseAttacksServer false
param *.node[*].appl.MixLocalAttacks false
param *.node[*].appl.RandomLocalMix false
param *.node[*].appl.LOCAL_ATTACKER_PROB 0.0
param *.node[*].appl.LOCAL_ATTACK_TYPE 5
param *.node[*].appl.GLOBAL_ATTACKER_PROB 0.0
param *.node[*].appl.GLOBAL_ATTACK_TYPE 20
param *.node[*].appl.EnablePC false
param *.node[*].appl.PC_TYPE 5
param *.node[*].appl.EnableV1 true
param *.node[*].appl.EnableV2 true
param *.node[*].appl.SaveStatsV1 true
param *.node[*].appl.SaveStatsV2 true
param *.node[*].appl.checksVersionV1 2
param *.node[*].appl.checksVersionV2 2
param *.node[*].appl.appTypeV1 3
param *.node[*].appl.appTypeV2 2
param *.node[*].appl.appl.REPORT_VERSION 2
param *.node[*].appl.sendReportsV1 false
param *.node[*].appl.sendReportsV2 false
param *.node[*].appl.maHostV1 "\"localhost\""
param *.node[*].appl.maHostV2 "\"localhost\""
param *.node[*].appl.maPortV1 9980
param *.node[*].appl.maPortV2 9981
param *.node[*].appl.writeSelfMsg false
param *.node[*].appl.writeListSelfMsg false
param *.node[*].appl.writeBsmsV1 false
param *.node[*].appl.writeBsmsV2 false
param *.node[*].appl.writeListBsmsV1 false
param *.node[*].appl.writeListBsmsV2 false
param *.node[*].appl.writeReportsV1 false
param *.node[*].appl.writeReportsV2 false
param *.node[*].appl.writeListReportsV1 false
param *.node[*].appl.writeListReportsV2 false
param *.node[*].appl.writeVeReMi false
param *.node[*].appl.VeReMiSliceTime 3600
param *.node[*].appl.enableMTA false
param *.node[*].appl.enableDT true
param *.node[*].appl.veremiConf true
param *.node[*].appl.randomConf false
param *.node[*].appl.variableConf false
param *.node[*].appl.confPos 10.0
param *.node[*].appl.confSpd 0.05
param *.node[*].appl.confHea 20.0
param *.node[*].appl.confAcc 0.01
param *.node[*].appl.confPrec 100.0
param *.node[*].appl.minConf 0.20
param *.node[*].appl.SAVE_PERIOD 10
param *.node[*].appl.PRINT_PERIOD 60
param *.node[*].appl.START_SAVE 0
param *.node[*].appl.START_ATTACK 10
param *.node[*].appl.enableVarThreV1 false
param *.node[*].appl.enableVarThreV2 false
param *.node[*].appl.MAX_PROXIMITY_RANGE_L 30
param *.node[*].appl.MAX_PROXIMITY_RANGE_W 3
param *.node[*].appl.MAX_PROXIMITY_DISTANCE 2
param *.node[*].appl.MAX_CONFIDENCE_RANGE 10
param *.node[*].appl.MAX_PLAUSIBLE_RANGE 420
param *.node[*].appl.MAX_TIME_DELTA 3.1
param *.node[*].appl.MAX_DELTA_INTER 2.0
param *.node[*].appl.MAX_SA_RANGE 420
param *.node[*].appl.MAX_SA_TIME 2.1
param *.node[*].appl.MAX_KALMAN_TIME 3.1
param *.node[*].appl.KALMAN_POS_RANGE 1.0
param *.node[*].appl.KALMAN_SPEED_RANGE 4.0
param *.node[*].appl.KALMAN_MIN_POS_RANGE 4.0
param *.node[*].appl.KALMAN_MIN_SPEED_RANGE 1.0
param *.node[*].appl.MIN_MAX_SPEED 40
param *.node[*].appl.MIN_MAX_ACCEL 3
param *.node[*].appl.MIN_MAX_DECEL 4.5
param *.node[*].appl.MAX_MGT_RNG 4
param *.node[*].appl.MAX_MGT_RNG_DOWN 6.2
param *.node[*].appl.MAX_MGT_RNG_UP 2.1
param *.node[*].appl.MAX_BEACON_FREQUENCY 0.99
param *.node[*].appl.MAX_DISTANCE_FROM_ROUTE 2
param *.node[*].appl.MAX_NON_ROUTE_SPEED -1
param *.node[*].appl.MAX_HEADING_CHANGE 90
param *.node[*].appl.DELTA_BSM_TIME 5
param *.node[*].appl.DELTA_REPORT_TIME 5
param *.node[*].appl.POS_HEADING_TIME 1.1
param *.node[*].appl.MAX_TARGET_TIME 2
param *.node[*].appl.MAX_ACCUSED_TIME 2
param *.node[*].appl.parVar 0.55
param *.node[*].appl.RandomPosOffsetX 70.0
param *.node[*].appl.RandomPosOffsetY 70.0
param *.node[*].appl.RandomSpeedX 40.0
param *.node[*].appl.RandomSpeedY 40.0
param *.node[*].appl.RandomSpeedOffsetX 7.0
param *.node[*].appl.RandomSpeedOffsetY 7.0
param *.node[*].appl.RandomAccelX 2.0
param *.node[*].appl.RandomAccelY 2.0
param *.node[*].appl.StopProb 0.05
param *.node[*].appl.StaleMessages_Buffer 60
param *.node[*].appl.DosMultipleFreq 4
param *.node[*].appl.DosMultipleFreqSybil 2
param *.node[*].appl.ReplaySeqNum 6
param *.node[*].appl.SybilVehNumber 5
param *.node[*].appl.SelfSybil false
param *.node[*].appl.SybilDistanceX 5
param *.node[*].appl.SybilDistanceY 2
param *.node[*].appl.Period_Change_Time 240
param *.node[*].appl.Tolerance_Buffer 10
param *.node[*].appl.Period_Change_Distance 80
param *.node[*].appl.Random_Change_Chance 0.1
param *.node[*].appl.InitialHistory 5
param *.node[*].appl.CollectionPeriod 10
param *.node[*].appl.UntolerancePeriod 5
param *.node[*].veinsmobilityType.debug false
param *.node[*].veinsmobility.x 0
param *.node[*].veinsmobility.y 0
param *.node[*].veinsmobility.z 1.895
param *.node[*].veinsmobility.setHostSpeed true
param *.node[*].veinsmobility.setHostAcceleration true

vector 0 intersectionScenario.node[0].veinsmobility posx ETV
vector 1 intersectionScenario.node[0].veinsmobility posy ETV
vector 2 intersectionScenario.node[0].veinsmobility laneid ETV
vector 3 intersectionScenario.node[1].veinsmobility posx ETV
vector 4 intersectionScenario.node[1].veinsmobility posy ETV
vector 5 intersectionScenario.node[1].veinsmobility laneid ETV
vector 6 intersectionScenario.node[2].veinsmobility posx ETV
vector 7 intersectionScenario.node[2].veinsmobility posy ETV
vector 8 intersectionScenario.node[2].veinsmobility laneid ETV
vector 9 intersectionScenario.node[3].veinsmobility posx ETV
vector 10 intersectionScenario.node[3].veinsmobility posy ETV
vector 11 intersectionScenario.node[3].veinsmobility laneid ETV
vector 12 intersectionScenario.node[4].veinsmobility posx ETV
vector 13 intersectionScenario.node[4].veinsmobility posy ETV
vector 14 intersectionScenario.node[4].veinsmobility laneid ETV
vector 15 intersectionScenario.node[5].veinsmobility posx ETV
vector 16 intersectionScenario.node[5].veinsmobility posy ETV
vector 17 intersectionScenario.node[5].veinsmobility laneid ETV
vector 18 intersectionScenario.node[6].veinsmobility posx ETV
vector 19 intersectionScenario.node[6].veinsmobility posy ETV
vector 20 intersectionScenario.node[6].veinsmobility laneid ETV
vector 21 intersectionScenario.node[7].veinsmobility posx ETV
vector 22 intersectionScenario.node[7].veinsmobility posy ETV
vector 23 intersectionScenario.node[7].veinsmobility laneid ETV
vector 24 intersectionScenario.node[0].veinsmobility speed ETV
vector 25 intersectionScenario.node[1].veinsmobility speed ETV
vector 26 intersectionScenario.node[2].veinsmobility speed ETV
vector 27 intersectionScenario.node[3].veinsmobility speed ETV
vector 28 intersectionScenario.node[4].veinsmobility speed ETV
vector 29 intersectionScenario.node[5].veinsmobility speed ETV
vector 30 intersectionScenario.node[6].veinsmobility speed ETV
vector 31 intersectionScenario.node[7].veinsmobility speed ETV
vector 32 intersectionScenario.node[0].veinsmobility acceleration ETV
vector 33 intersectionScenario.node[0].veinsmobility co2emission ETV
vector 34 intersectionScenario.node[1].veinsmobility acceleration ETV
vector 35 intersectionScenario.node[1].veinsmobility co2emission ETV
vector 36 intersectionScenario.node[2].veinsmobility acceleration ETV
vector 37 intersectionScenario.node[2].veinsmobility co2emission ETV
vector 38 intersectionScenario.node[3].veinsmobility acceleration ETV
vector 39 intersectionScenario.node[3].veinsmobility co2emission ETV
vector 40 intersectionScenario.node[4].veinsmobility acceleration ETV
vector 41 intersectionScenario.node[4].veinsmobility co2emission ETV
vector 42 intersectionScenario.node[5].veinsmobility acceleration ETV
vector 43 intersectionScenario.node[5].veinsmobility co2emission ETV
vector 44 intersectionScenario.node[6].veinsmobility acceleration ETV
vector 45 intersectionScenario.node[6].veinsmobility co2emission ETV
vector 46 intersectionScenario.node[7].veinsmobility acceleration ETV
vector 47 intersectionScenario.node[7].veinsmobility co2emission ETV
17	2	0.1	1.0159970873492e+19
17	3	0.2	1.0159970873492e+19
17	4	0.3	1.0159970873492e+19
17	5	0.4	1.0159970873492e+19
17	57	0.5	1.0159970873492e+19
17	109	0.6	1.0159970873492e+19
17	161	0.7	1.0159970873492e+19
17	264	0.8	1.0159970873492e+19
17	265	0.9	1.0159970873492e+19
17	419	1	1.0159970873492e+19
17	420	1.1	1.0159970873492e+19
17	421	1.2	1.0159970873492e+19
17	422	1.3	1.0159970873492e+19
17	423	1.4	1.0159970873492e+19
17	475	1.5	1.0159970873492e+19
17	527	1.6	1.0159970873492e+19
17	579	1.7	1.0159970873492e+19
17	682	1.8	1.0159970873492e+19
17	683	1.9	1.0159970873492e+19
17	837	2	1.0159970873492e+19
17	838	2.1	1.0159970873492e+19
17	839	2.2	1.0159970873492e+19
17	840	2.3	1.0159970873492e+19
17	841	2.4	1.0159970873492e+19
17	893	2.5	1.0159970873492e+19
17	945	2.6	1.0159970873492e+19
17	997	2.7	1.0159970873492e+19
17	1100	2.8	1.0159970873492e+19
17	1101	2.9	1.0159970873492e+19
17	1255	3	1.0159970873492e+19
17	1256	3.1	1.0159970873492e+19
17	1257	3.2	1.0159970873492e+19
17	1258	3.3	1.0159970873492e+19
17	1259	3.4	1.0159970873492e+19
17	1311	3.5	1.0159970873492e+19
17	1363	3.6	1.0159970873492e+19
17	1415	3.7	1.0159970873492e+19
17	1518	3.8	1.0159970873492e+19
17	1519	3.9	1.0159970873492e+19
17	1673	4	1.0159970873492e+19
17	1674	4.1	1.0159970873492e+19
17	1675	4.2	1.0159970873492e+19
17	1676	4.3	1.0159970873492e+19
17	1677	4.4	1.0159970873492e+19
17	1729	4.5	1.0159970873492e+19
17	1781	4.6	1.0159970873492e+19
17	1833	4.7	1.0159970873492e+19
17	1936	4.8	1.0159970873492e+19
17	1937	4.9	1.0159970873492e+19
17	2091	5	1.0159970873492e+19
17	2092	5.1	1.0159970873492e+19
17	2093	5.2	1.0159970873492e+19
17	2094	5.3	1.0159970873492e+19
17	2095	5.4	1.0159970873492e+19
17	2147	5.5	1.0159970873492e+19
17	2199	5.6	1.0159970873492e+19
17	2251	5.7	1.0159970873492e+19
17	2354	5.8	1.0159970873492e+19
17	2355	5.9	1.0159970873492e+19
17	2509	6	1.0159970873492e+19
17	2510	6.1	1.0159970873492e+19
17	2511	6.2	1.0159970873492e+19
17	2512	6.3	1.0159970873492e+19
17	2513	6.4	1.0159970873492e+19
17	2565	6.5	1.0159970873492e+19
17	2617	6.6	1.0159970873492e+19
17	2669	6.7	1.0159970873492e+19
17	2772	6.8	1.0159970873492e+19
17	2773	6.9	1.0159970873492e+19
17	2927	7	1.0159970873492e+19
17	2928	7.1	1.0159970873492e+19
17	2929	7.2	1.0159970873492e+19
17	2930	7.3	1.0159970873492e+19
17	2931	7.4	1.0159970873492e+19
17	2983	7.5	1.0159970873492e+19
17	3035	7.6	1.0159970873492e+19
17	3087	7.7	1.0159970873492e+19
17	3190	7.8	1.0159970873492e+19
17	3191	7.9	1.0159970873492e+19
17	3345	8	1.0159970873492e+19
17	3346	8.1	1.0159970873492e+19
17	3347	8.2	1.0159970873492e+19
17	3348	8.3	1.0159970873492e+19
17	3349	8.4	1.0159970873492e+19
17	3401	8.5	1.0159970873492e+19
17	3453	8.6	1.0159970873492e+19
17	3505	8.7	1.0159970873492e+19
17	3608	8.8	1.0159970873492e+19
17	3609	8.9	1.0159970873492e+19
17	3763	9	1.0159970873492e+19
43	4	0.3	0.973
43	5	0.4	0.973
43	57	0.5	0.973
43	109	0.6	0.973
43	161	0.7	0.973
43	264	0.8	0.973
43	265	0.9	0.973
43	419	1	0.973
43	420	1.1	15.972071194765
43	421	1.2	1.2307049787078
43	422	1.3	1.2307049787078
43	423	1.4	1.2307049787078
43	475	1.5	1.2307049787078
43	527	1.6	1.2307049787078
43	579	1.7	1.2307049787078
43	682	1.8	1.2307049787078
43	683	1.9	1.2307049787078
43	837	2	1.2307049787078
43	838	2.1	23.531138364315
43	839	2.2	1.3362305153965
43	840	2.3	1.3362305153965
43	841	2.4	1.3362305153965
43	893	2.5	1.3362305153965
43	945	2.6	1.3362305153965
43	997	2.7	1.3362305153965
43	1100	2.8	1.3362305153965
43	1101	2.9	1.3362305153965
43	1255	3	1.3362305153965
43	1256	3.1	25.193804411286
43	1257	3.2	1.4266368956276
43	1258	3.3	1.4266368956276
43	1259	3.4	1.4266368956276
43	1311	3.5	1.4266368956276
43	1363	3.6	1.4266368956276
43	1415	3.7	1.4266368956276
43	1518	3.8	1.4266368956276
43	1519	3.9	1.4266368956276
43	1673	4	1.4266368956276
43	1674	4.1	42.270624716167
43	1675	4.2	1.5556609770029
43	1676	4.3	1.5556609770029
43	1677	4.4	1.5556609770029
43	1729	4.5	1.5556609770029
43	1781	4.6	1.5556609770029
43	1833	4.7	1.5556609770029
43	1936	4.8	1.5556609770029
43	1937	4.9	1.5556609770029
43	2091	5	1.5556609770029
43	2092	5.1	59.20581030952
43	2093	5.2	1.7208149353115
43	2094	5.3	1.7208149353115
43	2095	5.4	1.7208149353115
43	2147	5.5	1.7208149353115
43	2199	5.6	1.7208149353115
43	2251	5.7	1.7208149353115
43	2354	5.8	1.7208149353115
43	2355	5.9	1.7208149353115
43	2509	6	1.7208149353115
43	2510	6.1	63.141752712051
43	2511	6.2	1.8933903739463
43	2512	6.3	1.8933903739463
43	2513	6.4	1.8933903739463
43	2565	6.5	1.8933903739463
43	2617	6.6	1.8933903739463
43	2669	6.7	1.8933903739463
43	2772	6.8	1.8933903739463
43	2773	6.9	1.8933903739463
43	2927	7	1.8933903739463
43	2928	7.1	86.620118127044
43	2929	7.2	2.1298657644698
43	2930	7.3	2.1298657644698
43	2931	7.4	2.1298657644698
43	2983	7.5	2.1298657644698
43	3035	7.6	2.1298657644698
43	3087	7.7	2.1298657644698
43	3190	7.8	2.1298657644698
43	3191	7.9	2.1298657644698
43	3345	8	2.1298657644698
43	3346	8.1	35.291868324919
43	3347	8.2	2.2284930419384
43	3348	8.3	2.2284930419384
43	3349	8.4	2.2284930419384
43	3401	8.5	2.2284930419384
43	3453	8.6	2.2284930419384
43	3505	8.7	2.2284930419384
43	3608	8.8	2.2284930419384
43	3609	8.9	2.2284930419384
43	3763	9	2.2284930419384
42	4	0.3	0
42	5	0.4	0
42	57	0.5	0
42	109	0.6	0
42	161	0.7	0
42	264	0.8	0
42	265	0.9	0
42	419	1	0
42	420	1.1	24.732063131174
42	421	1.2	0
42	422	1.3	0
42	423	1.4	0
42	475	1.5	0
42	527	1.6	0
42	579	1.7	0
42	682	1.8	0
42	683	1.9	0
42	837	2	0
42	838	2.1	20.403913045768
42	839	2.2	0
42	840	2.3	0
42	841	2.4	0
42	893	2.5	0
42	945	2.6	0
42	997	2.7	0
42	1100	2.8	0
42	1101	2.9	0
42	1255	3	0
42	1256	3.1	16.103753659641
42	1257	3.2	0
42	1258	3.3	0
42	1259	3.4	0
42	1311	3.5	0
42	1363	3.6	0
42	1415	3.7	0
42	1518	3.8	0
42	1519	3.9	0
42	1673	4	0
42	1674	4.1	20.634341837373
42	1675	4.2	0
42	1676	4.3	0
42	1677	4.4	0
42	1729	4.5	0
42	1781	4.6	0
42	1833	4.7	0
42	1936	4.8	0
42	1937	4.9	0
42	2091	5	0
42	2092	5.1	22.789806393906
42	2093	5.2	0
42	2094	5.3	0
42	2095	5.4	0
42	2147	5.5	0
42	2199	5.6	0
42	2251	5.7	0
42	2354	5.8	0
42	2355	5.9	0
42	2509	6	0
42	2510	6.1	20.332066265866
42	2511	6.2	0
42	2512	6.3	0
42	2513	6.4	0
42	2565	6.5	0
42	2617	6.6	0
42	2669	6.7	0
42	2772	6.8	0
42	2773	6.9	0
42	2927	7	0
42	2928	7.1	23.593932940857
42	2929	7.2	0
42	2930	7.3	0
42	2931	7.4	0
42	2983	7.5	0
42	3035	7.6	0
42	3087	7.7	0
42	3190	7.8	0
42	3191	7.9	0
42	3345	8	0
42	3346	8.1	8.7210971191798
42	3347	8.2	0
42	3348	8.3	0
42	3349	8.4	0
42	3401	8.5	0
42	3453	8.6	0
42	3505	8.7	0
42	3608	8.8	0
42	3609	8.9	0
42	3763	9	0
29	3	0.2	0
29	4	0.3	0
29	5	0.4	0
29	57	0.5	0
29	109	0.6	0
29	161	0.7	0
29	264	0.8	0
29	265	0.9	0
29	419	1	0
29	420	1.1	2.4732063131174
29	421	1.2	2.4732063131174
29	422	1.3	2.4732063131174
29	423	1.4	2.4732063131174
29	475	1.5	2.4732063131174
29	527	1.6	2.4732063131174
29	579	1.7	2.4732063131174
29	682	1.8	2.4732063131174
29	683	1.9	2.4732063131174
29	837	2	2.4732063131174
29	838	2.1	4.5135976176942
29	839	2.2	4.5135976176942
29	840	2.3	4.5135976176942
29	841	2.4	4.5135976176942
29	893	2.5	4.5135976176942
29	945	2.6	4.5135976176942
29	997	2.7	4.5135976176942
29	1100	2.8	4.5135976176942
29	1101	2.9	4.5135976176942
29	1255	3	4.5135976176942
29	1256	3.1	6.1239729836583
29	1257	3.2	6.1239729836583
29	1258	3.3	6.1239729836583
29	1259	3.4	6.1239729836583
29	1311	3.5	6.1239729836583
29	1363	3.6	6.1239729836583
29	1415	3.7	6.1239729836583
29	1518	3.8	6.1239729836583
29	1519	3.9	6.1239729836583
29	1673	4	6.1239729836583
29	1674	4.1	8.1874071673956
29	1675	4.2	8.1874071673956
29	1676	4.3	8.1874071673956
29	1677	4.4	8.1874071673956
29	1729	4.5	8.1874071673956
29	1781	4.6	8.1874071673956
29	1833	4.7	8.1874071673956
29	1936	4.8	8.1874071673956
29	1937	4.9	8.1874071673956
29	2091	5	8.1874071673956
29	2092	5.1	10.466387806786
29	2093	5.2	10.466387806786
29	2094	5.3	10.466387806786
29	2095	5.4	10.466387806786
29	2147	5.5	10.466387806786
29	2199	5.6	10.466387806786
29	2251	5.7	10.466387806786
29	2354	5.8	10.466387806786
29	2355	5.9	10.466387806786
29	2509	6	10.466387806786
29	2510	6.1	12.499594433373
29	2511	6.2	12.499594433373
29	2512	6.3	12.499594433373
29	2513	6.4	12.499594433373
29	2565	6.5	12.499594433373
29	2617	6.6	12.499594433373
29	2669	6.7	12.499594433373
29	2772	6.8	12.499594433373
29	2773	6.9	12.499594433373
29	2927	7	12.499594433373
29	2928	7.1	14.858987727459
29	2929	7.2	14.858987727459
29	2930	7.3	14.858987727459
29	2931	7.4	14.858987727459
29	2983	7.5	14.858987727459
29	3035	7.6	14.858987727459
29	3087	7.7	14.858987727459
29	3190	7.8	14.858987727459
29	3191	7.9	14.858987727459
29	3345	8	14.858987727459
29	3346	8.1	15.731097439377
29	3347	8.2	15.731097439377
29	3348	8.3	15.731097439377
29	3349	8.4	15.731097439377
29	3401	8.5	15.731097439377
29	3453	8.6	15.731097439377
29	3505	8.7	15.731097439377
29	3608	8.8	15.731097439377
29	3609	8.9	15.731097439377
29	3763	9	15.731097439377
16	2	0.1	30.1
16	3	0.2	30.1
16	4	0.3	30.1
16	5	0.4	30.1
16	57	0.5	30.1
16	109	0.6	30.1
16	161	0.7	30.1
16	264	0.8	30.1
16	265	0.9	30.1
16	419	1	30.1
16	420	1.1	30.1
16	421	1.2	32.573206313117
16	422	1.3	32.573206313117
16	423	1.4	32.573206313117
16	475	1.5	32.573206313117
16	527	1.6	32.573206313117
16	579	1.7	32.573206313117
16	682	1.8	32.573206313117
16	683	1.9	32.573206313117
16	837	2	32.573206313117
16	838	2.1	32.573206313117
16	839	2.2	37.086803930812
16	840	2.3	37.086803930812
16	841	2.4	37.086803930812
16	893	2.5	37.086803930812
16	945	2.6	37.086803930812
16	997	2.7	37.086803930812
16	1100	2.8	37.086803930812
16	1101	2.9	37.086803930812
16	1255	3	37.086803930812
16	1256	3.1	37.086803930812
16	1257	3.2	43.21077691447
16	1258	3.3	43.21077691447
16	1259	3.4	43.21077691447
16	1311	3.5	43.21077691447
16	1363	3.6	43.21077691447
16	1415	3.7	43.21077691447
16	1518	3.8	43.21077691447
16	1519	3.9	43.21077691447
16	1673	4	43.21077691447
16	1674	4.1	43.21077691447
16	1675	4.2	51.398184081865
16	1676	4.3	51.398184081865
16	1677	4.4	51.398184081865
16	1729	4.5	51.398184081865
16	1781	4.6	51.398184081865
16	1833	4.7	51.398184081865
16	1936	4.8	51.398184081865
16	1937	4.9	51.398184081865
16	2091	5	51.398184081865
16	2092	5.1	51.398184081865
16	2093	5.2	61.864571888652
16	2094	5.3	61.864571888652
16	2095	5.4	61.864571888652
16	2147	5.5	61.864571888652
16	2199	5.6	61.864571888652
16	2251	5.7	61.864571888652
16	2354	5.8	61.864571888652
16	2355	5.9	61.864571888652
16	2509	6	61.864571888652
16	2510	6.1	61.864571888652
16	2511	6.2	74.364166322025
16	2512	6.3	74.364166322025
16	2513	6.4	74.364166322025
16	2565	6.5	74.364166322025
16	2617	6.6	74.364166322025
16	2669	6.7	74.364166322025
16	2772	6.8	74.364166322025
16	2773	6.9	74.364166322025
16	2927	7	74.364166322025
16	2928	7.1	74.364166322025
16	2929	7.2	89.223154049483
16	2930	7.3	89.223154049483
16	2931	7.4	89.223154049483
16	2983	7.5	89.223154049483
16	3035	7.6	89.223154049483
16	3087	7.7	89.223154049483
16	3190	7.8	89.223154049483
16	3191	7.9	89.223154049483
16	3345	8	89.223154049483
16	3346	8.1	89.223154049483
16	3347	8.2	104.95425148886
16	3348	8.3	104.95425148886
16	3349	8.4	104.95425148886
16	3401	8.5	104.95425148886
16	3453	8.6	104.95425148886
16	3505	8.7	104.95425148886
16	3608	8.8	104.95425148886
16	3609	8.9	104.95425148886
16	3763	9	104.95425148886
15	2	0.1	68.4
15	3	0.2	68.4
15	4	0.3	68.4
15	5	0.4	68.4
15	57	0.5	68.4
15	109	0.6	68.4
15	161	0.7	68.4
15	264	0.8	68.4
15	265	0.9	68.4
15	419	1	68.4
15	420	1.1	68.4
15	421	1.2	68.4
15	422	1.3	68.4
15	423	1.4	68.4
15	475	1.5	68.4
15	527	1.6	68.4
15	579	1.7	68.4
15	682	1.8	68.4
15	683	1.9	68.4
15	837	2	68.4
15	838	2.1	68.4
15	839	2.2	68.4
15	840	2.3	68.4
15	841	2.4	68.4
15	893	2.5	68.4
15	945	2.6	68.4
15	997	2.7	68.4
15	1100	2.8	68.4
15	1101	2.9	68.4
15	1255	3	68.4
15	1256	3.1	68.4
15	1257	3.2	68.4
15	1258	3.3	68.4
15	1259	3.4	68.4
15	1311	3.5	68.4
15	1363	3.6	68.4
15	1415	3.7	68.4
15	1518	3.8	68.4
15	1519	3.9	68.4
15	1673	4	68.4
15	1674	4.1	68.4
15	1675	4.2	68.4
15	1676	4.3	68.4
15	1677	4.4	68.4
15	1729	4.5	68.4
15	1781	4.6	68.4
15	1833	4.7	68.4
15	1936	4.8	68.4
15	1937	4.9	68.4
15	2091	5	68.4
15	2092	5.1	68.4
15	2093	5.2	68.4
15	2094	5.3	68.4
15	2095	5.4	68.4
15	2147	5.5	68.4
15	2199	5.6	68.4
15	2251	5.7	68.4
15	2354	5.8	68.4
15	2355	5.9	68.4
15	2509	6	68.4
15	2510	6.1	68.4
15	2511	6.2	68.4
15	2512	6.3	68.4
15	2513	6.4	68.4
15	2565	6.5	68.4
15	2617	6.6	68.4
15	2669	6.7	68.4
15	2772	6.8	68.4
15	2773	6.9	68.4
15	2927	7	68.4
15	2928	7.1	68.4
15	2929	7.2	68.4
15	2930	7.3	68.4
15	2931	7.4	68.4
15	2983	7.5	68.4
15	3035	7.6	68.4
15	3087	7.7	68.4
15	3190	7.8	68.4
15	3191	7.9	68.4
15	3345	8	68.4
15	3346	8.1	68.4
15	3347	8.2	68.4
15	3348	8.3	68.4
15	3349	8.4	68.4
15	3401	8.5	68.4
15	3453	8.6	68.4
15	3505	8.7	68.4
15	3608	8.8	68.4
15	3609	8.9	68.4
15	3763	9	68.4
2	2	0.1	2.297668033615e+18
2	3	0.2	2.297668033615e+18
2	4	0.3	2.297668033615e+18
2	5	0.4	2.297668033615e+18
2	57	0.5	2.297668033615e+18
2	109	0.6	2.297668033615e+18
2	161	0.7	2.297668033615e+18
2	264	0.8	2.297668033615e+18
2	265	0.9	2.297668033615e+18
2	419	1	2.297668033615e+18
2	420	1.1	2.297668033615e+18
2	421	1.2	2.297668033615e+18
2	422	1.3	2.297668033615e+18
2	423	1.4	2.297668033615e+18
2	475	1.5	2.297668033615e+18
2	527	1.6	2.297668033615e+18
2	579	1.7	2.297668033615e+18
2	682	1.8	2.297668033615e+18
2	683	1.9	2.297668033615e+18
2	837	2	2.297668033615e+18
2	838	2.1	2.297668033615e+18
2	839	2.2	2.297668033615e+18
2	840	2.3	2.297668033615e+18
2	841	2.4	2.297668033615e+18
2	893	2.5	2.297668033615e+18
2	945	2.6	2.297668033615e+18
2	997	2.7	2.297668033615e+18
2	1100	2.8	2.297668033615e+18
2	1101	2.9	2.297668033615e+18
2	1255	3	2.297668033615e+18
2	1256	3.1	2.297668033615e+18
2	1257	3.2	2.297668033615e+18
2	1258	3.3	2.297668033615e+18
2	1259	3.4	2.297668033615e+18
2	1311	3.5	2.297668033615e+18
2	1363	3.6	2.297668033615e+18
2	1415	3.7	2.297668033615e+18
2	1518	3.8	2.297668033615e+18
2	1519	3.9	2.297668033615e+18
2	1673	4	2.297668033615e+18
2	1674	4.1	2.297668033615e+18
2	1675	4.2	2.297668033615e+18
2	1676	4.3	2.297668033615e+18
2	1677	4.4	2.297668033615e+18
2	1729	4.5	2.297668033615e+18
2	1781	4.6	2.297668033615e+18
2	1833	4.7	2.297668033615e+18
2	1936	4.8	2.297668033615e+18
2	1937	4.9	2.297668033615e+18
2	2091	5	2.297668033615e+18
2	2092	5.1	2.297668033615e+18
2	2093	5.2	2.297668033615e+18
2	2094	5.3	2.297668033615e+18
2	2095	5.4	2.297668033615e+18
2	2147	5.5	2.297668033615e+18
2	2199	5.6	2.297668033615e+18
2	2251	5.7	2.297668033615e+18
2	2354	5.8	2.297668033615e+18
2	2355	5.9	2.297668033615e+18
2	2509	6	2.297668033615e+18
2	2510	6.1	2.297668033615e+18
2	2511	6.2	2.297668033615e+18
2	2512	6.3	2.297668033615e+18
2	2513	6.4	2.297668033615e+18
2	2565	6.5	2.297668033615e+18
2	2617	6.6	2.297668033615e+18
2	2669	6.7	2.297668033615e+18
2	2772	6.8	2.297668033615e+18
2	2773	6.9	2.297668033615e+18
2	2927	7	2.297668033615e+18
2	2928	7.1	2.297668033615e+18
2	2929	7.2	2.297668033615e+18
2	2930	7.3	2.297668033615e+18
2	2931	7.4	2.297668033615e+18
2	2983	7.5	2.297668033615e+18
2	3035	7.6	2.297668033615e+18
2	3087	7.7	2.297668033615e+18
2	3190	7.8	2.297668033615e+18
2	3191	7.9	2.297668033615e+18
2	3345	8	2.297668033615e+18
2	3346	8.1	2.297668033615e+18
2	3347	8.2	2.297668033615e+18
2	3348	8.3	2.297668033615e+18
2	3349	8.4	2.297668033615e+18
2	3401	8.5	2.297668033615e+18
2	3453	8.6	2.297668033615e+18
2	3505	8.7	2.297668033615e+18
2	3608	8.8	2.297668033615e+18
2	3609	8.9	2.297668033615e+18
2	3763	9	2.297668033615e+18
2	3764	9.1	2.297668033615e+18
2	3765	9.2	2.297668033615e+18
2	3766	9.3	2.297668033615e+18
2	3767	9.4	2.297668033615e+18
2	3768	9.5	2.297668033615e+18
2	3814	9.6	2.297668033615e+18
2	3860	9.7	2.297668033615e+18
2	3951	9.8	2.297668033615e+18
2	3952	9.9	2.297668033615e+18
2	4088	10	2.297668033615e+18
2	4089	10.1	2.297668033615e+18
2	4090	10.2	2.297668033615e+18
2	4091	10.3	2.297668033615e+18
2	4092	10.4	2.297668033615e+18
2	4093	10.5	2.297668033615e+18
2	4139	10.6	2.297668033615e+18
2	4185	10.7	2.297668033615e+18
2	4276	10.8	2.297668033615e+18
2	4277	10.9	2.297668033615e+18
2	4413	11	2.297668033615e+18
33	4	0.3	0.973
33	5	0.4	0.973
33	57	0.5	0.973
33	109	0.6	0.973
33	161	0.7	0.973
33	264	0.8	0.973
33	265	0.9	0.973
33	419	1	0.973
33	420	1.1	14.295953477024
33	421	1.2	1.2235180524429
33	422	1.3	1.2235180524429
33	423	1.4	1.2235180524429
33	475	1.5	1.2235180524429
33	527	1.6	1.2235180524429
33	579	1.7	1.2235180524429
33	682	1.8	1.2235180524429
33	683	1.9	1.2235180524429
33	837	2	1.2235180524429
33	838	2.1	17.64363467959
33	839	2.2	1.3097390090106
33	840	2.3	1.3097390090106
33	841	2.4	1.3097390090106
33	893	2.5	1.3097390090106
33	945	2.6	1.3097390090106
33	997	2.7	1.3097390090106
33	1100	2.8	1.3097390090106
33	1101	2.9	1.3097390090106
33	1255	3	1.3097390090106
33	1256	3.1	29.913873788445
33	1257	3.2	1.4188271987656
33	1258	3.3	1.4188271987656
33	1259	3.4	1.4188271987656
33	1311	3.5	1.4188271987656
33	1363	3.6	1.4188271987656
33	1415	3.7	1.4188271987656
33	1518	3.8	1.4188271987656
33	1519	3.9	1.4188271987656
33	1673	4	1.4188271987656
33	1674	4.1	31.908941635107
33	1675	4.2	1.5197883830898
33	1676	4.3	1.5197883830898
33	1677	4.4	1.5197883830898
33	1729	4.5	1.5197883830898
33	1781	4.6	1.5197883830898
33	1833	4.7	1.5197883830898
33	1936	4.8	1.5197883830898
33	1937	4.9	1.5197883830898
33	2091	5	1.5197883830898
33	2092	5.1	0.973
33	2093	5.2	1.4438253967269
33	2094	5.3	1.4438253967269
33	2095	5.4	1.4438253967269
33	2147	5.5	1.4438253967269
33	2199	5.6	1.4438253967269
33	2251	5.7	1.4438253967269
33	2354	5.8	1.4438253967269
33	2355	5.9	1.4438253967269
33	2509	6	1.4438253967269
33	2510	6.1	1.8145495886273
33	2511	6.2	1.4452459495491
33	2512	6.3	1.4452459495491
33	2513	6.4	1.4452459495491
33	2565	6.5	1.4452459495491
33	2617	6.6	1.4452459495491
33	2669	6.7	1.4452459495491
33	2772	6.8	1.4452459495491
33	2773	6.9	1.4452459495491
33	2927	7	1.4452459495491
33	2928	7.1	4.0089607727742
33	2929	7.2	1.4548845097408
33	2930	7.3	1.4548845097408
33	2931	7.4	1.4548845097408
33	2983	7.5	1.4548845097408
33	3035	7.6	1.4548845097408
33	3087	7.7	1.4548845097408
33	3190	7.8	1.4548845097408
33	3191	7.9	1.4548845097408
33	3345	8	1.4548845097408
33	3346	8.1	30.444353667041
33	3347	8.2	1.5486749789606
33	3348	8.3	1.5486749789606
33	3349	8.4	1.5486749789606
33	3401	8.5	1.5486749789606
33	3453	8.6	1.5486749789606
33	3505	8.7	1.5486749789606
33	3608	8.8	1.5486749789606
33	3609	8.9	1.5486749789606
33	3763	9	1.5486749789606
33	3764	9.1	66.200136850589
33	3765	9.2	1.7317599740503
33	3766	9.3	1.7317599740503
33	3767	9.4	1.7317599740503
33	3768	9.5	1.7317599740503
33	3814	9.6	1.7317599740503
33	3860	9.7	1.7317599740503
33	3951	9.8	1.7317599740503
33	3952	9.9	1.7317599740503
33	4088	10	1.7317599740503
33	4089	10.1	66.766154732054
33	4090	10.2	1.9137730801043
33	4091	10.3	1.9137730801043
33	4092	10.4	1.9137730801043
33	4093	10.5	1.9137730801043
33	4139	10.6	1.9137730801043
33	4185	10.7	1.9137730801043
33	4276	10.8	1.9137730801043
33	4277	10.9	1.9137730801043
33	4413	11	1.9137730801043
32	4	0.3	0
32	5	0.4	0
32	57	0.5	0
32	109	0.6	0
32	161	0.7	0
32	264	0.8	0
32	265	0.9	0
32	419	1	0
32	420	1.1	23.290013018763
32	421	1.2	0
32	422	1.3	0
32	423	1.4	0
32	475	1.5	0
32	527	1.6	0
32	579	1.7	0
32	682	1.8	0
32	683	1.9	0
32	837	2	0
32	838	2.1	16.874481278472
32	839	2.2	0
32	840	2.3	0
32	841	2.4	0
32	893	2.5	0
32	945	2.6	0
32	997	2.7	0
32	1100	2.8	0
32	1101	2.9	0
32	1255	3	0
32	1256	3.1	19.73814623151
32	1257	3.2	0
32	1258	3.3	0
32	1259	3.4	0
32	1311	3.5	0
32	1363	3.6	0
32	1415	3.7	0
32	1518	3.8	0
32	1519	3.9	0
32	1673	4	0
32	1674	4.1	16.503413632512
32	1675	4.2	0
32	1676	4.3	0
32	1677	4.4	0
32	1729	4.5	0
32	1781	4.6	0
32	1833	4.7	0
32	1936	4.8	0
32	1937	4.9	0
32	2091	5	0
32	2092	5.1	-12.259649573704
32	2093	5.2	0
32	2094	5.3	0
32	2095	5.4	0
32	2147	5.5	0
32	2199	5.6	0
32	2251	5.7	0
32	2354	5.8	0
32	2355	5.9	0
32	2509	6	0
32	2510	6.1	0.2380048614644
32	2511	6.2	0
32	2512	6.3	0
32	2513	6.4	0
32	2565	6.5	0
32	2617	6.6	0
32	2669	6.7	0
32	2772	6.8	0
32	2773	6.9	0
32	2927	7	0
32	2928	7.1	1.6059655395802
32	2929	7.2	0
32	2930	7.3	0
32	2931	7.4	0
32	2983	7.5	0
32	3035	7.6	0
32	3087	7.7	0
32	3190	7.8	0
32	3191	7.9	0
32	3345	8	0
32	3346	8.1	14.834439461352
32	3347	8.2	0
32	3348	8.3	0
32	3349	8.4	0
32	3401	8.5	0
32	3453	8.6	0
32	3505	8.7	0
32	3608	8.8	0
32	3609	8.9	0
32	3763	9	0
32	3764	9.1	25.224465359235
32	3765	9.2	0
32	3766	9.3	0
32	3767	9.4	0
32	3768	9.5	0
32	3814	9.6	0
32	3860	9.7	0
32	3951	9.8	0
32	3952	9.9	0
32	4088	10	0
32	4089	10.1	21.154755010968
32	4090	10.2	0
32	4091	10.3	0
32	4092	10.4	0
32	4093	10.5	0
32	4139	10.6	0
32	4185	10.7	0
32	4276	10.8	0
32	4277	10.9	0
32	4413	11	0
24	3	0.2	0
24	4	0.3	0
24	5	0.4	0
24	57	0.5	0
24	109	0.6	0
24	161	0.7	0
24	264	0.8	0
24	265	0.9	0
24	419	1	0
24	420	1.1	2.3290013018763
24	421	1.2	2.3290013018763
24	422	1.3	2.3290013018763
24	423	1.4	2.3290013018763
24	475	1.5	2.3290013018763
24	527	1.6	2.3290013018763
24	579	1.7	2.3290013018763
24	682	1.8	2.3290013018763
24	683	1.9	2.3290013018763
24	837	2	2.3290013018763
24	838	2.1	4.0164494297234
24	839	2.2	4.0164494297234
24	840	2.3	4.0164494297234
24	841	2.4	4.0164494297234
24	893	2.5	4.0164494297234
24	945	2.6	4.0164494297234
24	997	2.7	4.0164494297234
24	1100	2.8	4.0164494297234
24	1101	2.9	4.0164494297234
24	1255	3	4.0164494297234
24	1256	3.1	5.9902640528744
24	1257	3.2	5.9902640528744
24	1258	3.3	5.9902640528744
24	1259	3.4	5.9902640528744
24	1311	3.5	5.9902640528744
24	1363	3.6	5.9902640528744
24	1415	3.7	5.9902640528744
24	1518	3.8	5.9902640528744
24	1519	3.9	5.9902640528744
24	1673	4	5.9902640528744
24	1674	4.1	7.6406054161256
24	1675	4.2	7.6406054161256
24	1676	4.3	7.6406054161256
24	1677	4.4	7.6406054161256
24	1729	4.5	7.6406054161256
24	1781	4.6	7.6406054161256
24	1833	4.7	7.6406054161256
24	1936	4.8	7.6406054161256
24	1937	4.9	7.6406054161256
24	2091	5	7.6406054161256
24	2092	5.1	6.4146404587552
24	2093	5.2	6.4146404587552
24	2094	5.3	6.4146404587552
24	2095	5.4	6.4146404587552
24	2147	5.5	6.4146404587552
24	2199	5.6	6.4146404587552
24	2251	5.7	6.4146404587552
24	2354	5.8	6.4146404587552
24	2355	5.9	6.4146404587552
24	2509	6	6.4146404587552
24	2510	6.1	6.4384409449016
24	2511	6.2	6.4384409449016
24	2512	6.3	6.4384409449016
24	2513	6.4	6.4384409449016
24	2565	6.5	6.4384409449016
24	2617	6.6	6.4384409449016
24	2669	6.7	6.4384409449016
24	2772	6.8	6.4384409449016
24	2773	6.9	6.4384409449016
24	2927	7	6.4384409449016
24	2928	7.1	6.5990374988597
24	2929	7.2	6.5990374988597
24	2930	7.3	6.5990374988597
24	2931	7.4	6.5990374988597
24	2983	7.5	6.5990374988597
24	3035	7.6	6.5990374988597
24	3087	7.7	6.5990374988597
24	3190	7.8	6.5990374988597
24	3191	7.9	6.5990374988597
24	3345	8	6.5990374988597
24	3346	8.1	8.0824814449949
24	3347	8.2	8.0824814449949
24	3348	8.3	8.0824814449949
24	3349	8.4	8.0824814449949
24	3401	8.5	8.0824814449949
24	3453	8.6	8.0824814449949
24	3505	8.7	8.0824814449949
24	3608	8.8	8.0824814449949
24	3609	8.9	8.0824814449949
24	3763	9	8.0824814449949
24	3764	9.1	10.604927980918
24	3765	9.2	10.604927980918
24	3766	9.3	10.604927980918
24	3767	9.4	10.604927980918
24	3768	9.5	10.604927980918
24	3814	9.6	10.604927980918
24	3860	9.7	10.604927980918
24	3951	9.8	10.604927980918
24	3952	9.9	10.604927980918
24	4088	10	10.604927980918
24	4089	10.1	12.720403482015
24	4090	10.2	12.720403482015
24	4091	10.3	12.720403482015
24	4092	10.4	12.720403482015
24	4093	10.5	12.720403482015
24	4139	10.6	12.720403482015
24	4185	10.7	12.720403482015
24	4276	10.8	12.720403482015
24	4277	10.9	12.720403482015
24	4413	11	12.720403482015
1	2	0.1	74.8
1	3	0.2	74.8
1	4	0.3	74.8
1	5	0.4	74.8
1	57	0.5	74.8
1	109	0.6	74.8
1	161	0.7	74.8
1	264	0.8	74.8
1	265	0.9	74.8
1	419	1	74.8
1	420	1.1	74.8
1	421	1.2	74.8
1	422	1.3	74.8
1	423	1.4	74.8
1	475	1.5	74.8
1	527	1.6	74.8
1	579	1.7	74.8
1	682	1.8	74.8
1	683	1.9	74.8
1	837	2	74.8
1	838	2.1	74.8
1	839	2.2	74.8
1	840	2.3	74.8
1	841	2.4	74.8
1	893	2.5	74.8
1	945	2.6	74.8
1	997	2.7	74.8
1	1100	2.8	74.8
1	1101	2.9	74.8
1	1255	3	74.8
1	1256	3.1	74.8
1	1257	3.2	74.8
1	1258	3.3	74.8
1	1259	3.4	74.8
1	1311	3.5	74.8
1	1363	3.6	74.8
1	1415	3.7	74.8
1	1518	3.8	74.8
1	1519	3.9	74.8
1	1673	4	74.8
1	1674	4.1	74.8
1	1675	4.2	74.8
1	1676	4.3	74.8
1	1677	4.4	74.8
1	1729	4.5	74.8
1	1781	4.6	74.8
1	1833	4.7	74.8
1	1936	4.8	74.8
1	1937	4.9	74.8
1	2091	5	74.8
1	2092	5.1	74.8
1	2093	5.2	74.8
1	2094	5.3	74.8
1	2095	5.4	74.8
1	2147	5.5	74.8
1	2199	5.6	74.8
1	2251	5.7	74.8
1	2354	5.8	74.8
1	2355	5.9	74.8
1	2509	6	74.8
1	2510	6.1	74.8
1	2511	6.2	75.589919154532
1	2512	6.3	75.589919154532
1	2513	6.4	75.589919154532
1	2565	6.5	75.589919154532
1	2617	6.6	75.589919154532
1	2669	6.7	75.589919154532
1	2772	6.8	75.589919154532
1	2773	6.9	75.589919154532
1	2927	7	75.589919154532
1	2928	7.1	75.589919154532
1	2929	7.2	81.298439103116
1	2930	7.3	81.298439103116
1	2931	7.4	81.298439103116
1	2983	7.5	81.298439103116
1	3035	7.6	81.298439103116
1	3087	7.7	81.298439103116
1	3190	7.8	81.298439103116
1	3191	7.9	81.298439103116
1	3345	8	81.298439103116
1	3346	8.1	81.298439103116
1	3347	8.2	89.380920548111
1	3348	8.3	89.380920548111
1	3349	8.4	89.380920548111
1	3401	8.5	89.380920548111
1	3453	8.6	89.380920548111
1	3505	8.7	89.380920548111
1	3608	8.8	89.380920548111
1	3609	8.9	89.380920548111
1	3763	9	89.380920548111
1	3764	9.1	89.380920548111
1	3765	9.2	99.98584852903
1	3766	9.3	99.98584852903
1	3767	9.4	99.98584852903
1	3768	9.5	99.98584852903
1	3814	9.6	99.98584852903
1	3860	9.7	99.98584852903
1	3951	9.8	99.98584852903
1	3952	9.9	99.98584852903
1	4088	10	99.98584852903
1	4089	10.1	99.98584852903
1	4090	10.2	112.70625201104
1	4091	10.3	112.70625201104
1	4092	10.4	112.70625201104
1	4093	10.5	112.70625201104
1	4139	10.6	112.70625201104
1	4185	10.7	112.70625201104
1	4276	10.8	112.70625201104
1	4277	10.9	112.70625201104
1	4413	11	112.70625201104
0	2	0.1	30.1
0	3	0.2	30.1
0	4	0.3	30.1
0	5	0.4	30.1
0	57	0.5	30.1
0	109	0.6	30.1
0	161	0.7	30.1
0	264	0.8	30.1
0	265	0.9	30.1
0	419	1	30.1
0	420	1.1	30.1
0	421	1.2	32.429001301876
0	422	1.3	32.429001301876
0	423	1.4	32.429001301876
0	475	1.5	32.429001301876
0	527	1.6	32.429001301876
0	579	1.7	32.429001301876
0	682	1.8	32.429001301876
0	683	1.9	32.429001301876
0	837	2	32.429001301876
0	838	2.1	32.429001301876
0	839	2.2	36.4454507316
0	840	2.3	36.4454507316
0	841	2.4	36.4454507316
0	893	2.5	36.4454507316
0	945	2.6	36.4454507316
0	997	2.7	36.4454507316
0	1100	2.8	36.4454507316
0	1101	2.9	36.4454507316
0	1255	3	36.4454507316
0	1256	3.1	36.4454507316
0	1257	3.2	42.435714784474
0	1258	3.3	42.435714784474
0	1259	3.4	42.435714784474
0	1311	3.5	42.435714784474
0	1363	3.6	42.435714784474
0	1415	3.7	42.435714784474
0	1518	3.8	42.435714784474
0	1519	3.9	42.435714784474
0	1673	4	42.435714784474
0	1674	4.1	42.435714784474
0	1675	4.2	50.0763202006
0	1676	4.3	50.0763202006
0	1677	4.4	50.0763202006
0	1729	4.5	50.0763202006
0	1781	4.6	50.0763202006
0	1833	4.7	50.0763202006
0	1936	4.8	50.0763202006
0	1937	4.9	50.0763202006
0	2091	5	50.0763202006
0	2092	5.1	50.0763202006
0	2093	5.2	56.490960659355
0	2094	5.3	56.490960659355
0	2095	5.4	56.490960659355
0	2147	5.5	56.490960659355
0	2199	5.6	56.490960659355
0	2251	5.7	56.490960659355
0	2354	5.8	56.490960659355
0	2355	5.9	56.490960659355
0	2509	6	56.490960659355
0	2510	6.1	56.490960659355
0	2511	6.2	62.783198590887
0	2512	6.3	62.783198590887
0	2513	6.4	62.783198590887
0	2565	6.5	62.783198590887
0	2617	6.6	62.783198590887
0	2669	6.7	62.783198590887
0	2772	6.8	62.783198590887
0	2773	6.9	62.783198590887
0	2927	7	62.783198590887
0	2928	7.1	62.783198590887
0	2929	7.2	65.2
0	2930	7.3	65.2
0	2931	7.4	65.2
0	2983	7.5	65.2
0	3035	7.6	65.2
0	3087	7.7	65.2
0	3190	7.8	65.2
0	3191	7.9	65.2
0	3345	8	65.2
0	3346	8.1	65.2
0	3347	8.2	65.2
0	3348	8.3	65.2
0	3349	8.4	65.2
0	3401	8.5	65.2
0	3453	8.6	65.2
0	3505	8.7	65.2
0	3608	8.8	65.2
0	3609	8.9	65.2
0	3763	9	65.2
0	3764	9.1	65.2
0	3765	9.2	65.2
0	3766	9.3	65.2
0	3767	9.4	65.2
0	3768	9.5	65.2
0	3814	9.6	65.2
0	3860	9.7	65.2
0	3951	9.8	65.2
0	3952	9.9	65.2
0	4088	10	65.2
0	4089	10.1	65.2
0	4090	10.2	65.2
0	4091	10.3	65.2
0	4092	10.4	65.2
0	4093	10.5	65.2
0	4139	10.6	65.2
0	4185	10.7	65.2
0	4276	10.8	65.2
0	4277	10.9	65.2
0	4413	11	65.2
14	2	0.1	2.297668033615e+18
14	3	0.2	2.297668033615e+18
14	4	0.3	2.297668033615e+18
14	5	0.4	2.297668033615e+18
14	57	0.5	2.297668033615e+18
14	109	0.6	2.297668033615e+18
14	161	0.7	2.297668033615e+18
14	264	0.8	2.297668033615e+18
14	265	0.9	2.297668033615e+18
14	419	1	2.297668033615e+18
14	420	1.1	2.297668033615e+18
14	421	1.2	2.297668033615e+18
14	422	1.3	2.297668033615e+18
14	423	1.4	2.297668033615e+18
14	475	1.5	2.297668033615e+18
14	527	1.6	2.297668033615e+18
14	579	1.7	2.297668033615e+18
14	682	1.8	2.297668033615e+18
14	683	1.9	2.297668033615e+18
14	837	2	2.297668033615e+18
14	838	2.1	2.297668033615e+18
14	839	2.2	2.297668033615e+18
14	840	2.3	2.297668033615e+18
14	841	2.4	2.297668033615e+18
14	893	2.5	2.297668033615e+18
14	945	2.6	2.297668033615e+18
14	997	2.7	2.297668033615e+18
14	1100	2.8	2.297668033615e+18
14	1101	2.9	2.297668033615e+18
14	1255	3	2.297668033615e+18
14	1256	3.1	2.297668033615e+18
14	1257	3.2	2.297668033615e+18
14	1258	3.3	2.297668033615e+18
14	1259	3.4	2.297668033615e+18
14	1311	3.5	2.297668033615e+18
14	1363	3.6	2.297668033615e+18
14	1415	3.7	2.297668033615e+18
14	1518	3.8	2.297668033615e+18
14	1519	3.9	2.297668033615e+18
14	1673	4	2.297668033615e+18
14	1674	4.1	2.297668033615e+18
14	1675	4.2	2.297668033615e+18
14	1676	4.3	2.297668033615e+18
14	1677	4.4	2.297668033615e+18
14	1729	4.5	2.297668033615e+18
14	1781	4.6	2.297668033615e+18
14	1833	4.7	2.297668033615e+18
14	1936	4.8	2.297668033615e+18
14	1937	4.9	2.297668033615e+18
14	2091	5	2.297668033615e+18
14	2092	5.1	2.297668033615e+18
14	2093	5.2	2.297668033615e+18
14	2094	5.3	2.297668033615e+18
14	2095	5.4	2.297668033615e+18
14	2147	5.5	2.297668033615e+18
14	2199	5.6	2.297668033615e+18
14	2251	5.7	2.297668033615e+18
14	2354	5.8	2.297668033615e+18
14	2355	5.9	2.297668033615e+18
14	2509	6	2.297668033615e+18
14	2510	6.1	2.297668033615e+18
14	2511	6.2	2.297668033615e+18
14	2512	6.3	2.297668033615e+18
14	2513	6.4	2.297668033615e+18
14	2565	6.5	2.297668033615e+18
14	2617	6.6	2.297668033615e+18
14	2669	6.7	2.297668033615e+18
14	2772	6.8	2.297668033615e+18
14	2773	6.9	2.297668033615e+18
14	2927	7	2.297668033615e+18
14	2928	7.1	2.297668033615e+18
14	2929	7.2	2.297668033615e+18
14	2930	7.3	2.297668033615e+18
14	2931	7.4	2.297668033615e+18
14	2983	7.5	2.297668033615e+18
14	3035	7.6	2.297668033615e+18
14	3087	7.7	2.297668033615e+18
14	3190	7.8	2.297668033615e+18
14	3191	7.9	2.297668033615e+18
14	3345	8	2.297668033615e+18
14	3346	8.1	2.297668033615e+18
14	3347	8.2	2.297668033615e+18
14	3348	8.3	2.297668033615e+18
14	3349	8.4	2.297668033615e+18
14	3401	8.5	2.297668033615e+18
14	3453	8.6	2.297668033615e+18
14	3505	8.7	2.297668033615e+18
14	3608	8.8	2.297668033615e+18
14	3609	8.9	2.297668033615e+18
14	3763	9	2.297668033615e+18
14	3764	9.1	2.297668033615e+18
14	3765	9.2	2.297668033615e+18
14	3766	9.3	2.297668033615e+18
14	3767	9.4	2.297668033615e+18
14	3768	9.5	2.297668033615e+18
14	3814	9.6	2.297668033615e+18
14	3860	9.7	2.297668033615e+18
14	3951	9.8	2.297668033615e+18
14	3952	9.9	2.297668033615e+18
14	4088	10	2.297668033615e+18
14	4089	10.1	2.297668033615e+18
14	4090	10.2	2.297668033615e+18
14	4091	10.3	2.297668033615e+18
14	4092	10.4	2.297668033615e+18
14	4093	10.5	2.297668033615e+18
14	4139	10.6	2.297668033615e+18
14	4185	10.7	2.297668033615e+18
14	4276	10.8	2.297668033615e+18
14	4277	10.9	2.297668033615e+18
14	4413	11	2.297668033615e+18
41	4	0.3	0.973
41	5	0.4	0.973
41	57	0.5	0.973
41	109	0.6	0.973
41	161	0.7	0.973
41	264	0.8	0.973
41	265	0.9	0.973
41	419	1	0.973
41	420	1.1	8.6138819924008
41	421	1.2	1.1951366641231
41	422	1.3	1.1951366641231
41	423	1.4	1.1951366641231
41	475	1.5	1.1951366641231
41	527	1.6	1.1951366641231
41	579	1.7	1.1951366641231
41	682	1.8	1.1951366641231
41	683	1.9	1.1951366641231
41	837	2	1.1951366641231
41	838	2.1	26.975168342238
41	839	2.2	1.3224150342633
41	840	2.3	1.3224150342633
41	841	2.4	1.3224150342633
41	893	2.5	1.3224150342633
41	945	2.6	1.3224150342633
41	997	2.7	1.3224150342633
41	1100	2.8	1.3224150342633
41	1101	2.9	1.3224150342633
41	1255	3	1.3224150342633
41	1256	3.1	30.455484865243
41	1257	3.2	1.4310226212331
41	1258	3.3	1.4310226212331
41	1259	3.4	1.4310226212331
41	1311	3.5	1.4310226212331
41	1363	3.6	1.4310226212331
41	1415	3.7	1.4310226212331
41	1518	3.8	1.4310226212331
41	1519	3.9	1.4310226212331
41	1673	4	1.4310226212331
41	1674	4.1	42.003466251391
41	1675	4.2	1.5589263999173
41	1676	4.3	1.5589263999173
41	1677	4.4	1.5589263999173
41	1729	4.5	1.5589263999173
41	1781	4.6	1.5589263999173
41	1833	4.7	1.5589263999173
41	1936	4.8	1.5589263999173
41	1937	4.9	1.5589263999173
41	2091	5	1.5589263999173
41	2092	5.1	0.973
41	2093	5.2	1.5374814840456
41	2094	5.3	1.5374814840456
41	2095	5.4	1.5374814840456
41	2147	5.5	1.5374814840456
41	2199	5.6	1.5374814840456
41	2251	5.7	1.5374814840456
41	2354	5.8	1.5374814840456
41	2355	5.9	1.5374814840456
41	2509	6	1.5374814840456
41	2510	6.1	0.973
41	2511	6.2	1.3868003600916
41	2512	6.3	1.3868003600916
41	2513	6.4	1.3868003600916
41	2565	6.5	1.3868003600916
41	2617	6.6	1.3868003600916
41	2669	6.7	1.3868003600916
41	2772	6.8	1.3868003600916
41	2773	6.9	1.3868003600916
41	2927	7	1.3868003600916
41	2928	7.1	0.973
41	2929	7.2	1.3647155446872
41	2930	7.3	1.3647155446872
41	2931	7.4	1.3647155446872
41	2983	7.5	1.3647155446872
41	3035	7.6	1.3647155446872
41	3087	7.7	1.3647155446872
41	3190	7.8	1.3647155446872
41	3191	7.9	1.3647155446872
41	3345	8	1.3647155446872
41	3346	8.1	30.345278480704
41	3347	8.2	1.4669724849315
41	3348	8.3	1.4669724849315
41	3349	8.4	1.4669724849315
41	3401	8.5	1.4669724849315
41	3453	8.6	1.4669724849315
41	3505	8.7	1.4669724849315
41	3608	8.8	1.4669724849315
41	3609	8.9	1.4669724849315
41	3763	9	1.4669724849315
41	3764	9.1	29.401391729916
41	3765	9.2	1.5569165307358
41	3766	9.3	1.5569165307358
41	3767	9.4	1.5569165307358
41	3768	9.5	1.5569165307358
41	3814	9.6	1.5569165307358
41	3860	9.7	1.5569165307358
41	3951	9.8	1.5569165307358
41	3952	9.9	1.5569165307358
41	4088	10	1.5569165307358
41	4089	10.1	54.018656662379
41	4090	10.2	1.7086878443171
41	4091	10.3	1.7086878443171
41	4092	10.4	1.7086878443171
41	4093	10.5	1.7086878443171
41	4139	10.6	1.7086878443171
41	4185	10.7	1.7086878443171
41	4276	10.8	1.7086878443171
41	4277	10.9	1.7086878443171
41	4413	11	1.7086878443171
40	4	0.3	0
40	5	0.4	0
40	57	0.5	0
40	109	0.6	0
40	161	0.7	0
40	264	0.8	0
40	265	0.9	0
40	419	1	0
40	420	1.1	17.54513483448
40	421	1.2	0
40	422	1.3	0
40	423	1.4	0
40	475	1.5	0
40	527	1.6	0
40	579	1.7	0
40	682	1.8	0
40	683	1.9	0
40	837	2	0
40	838	2.1	25.011860015104
40	839	2.2	0
40	840	2.3	0
40	841	2.4	0
40	893	2.5	0
40	945	2.6	0
40	997	2.7	0
40	1100	2.8	0
40	1101	2.9	0
40	1255	3	0
40	1256	3.1	19.429106110707
40	1257	3.2	0
40	1258	3.3	0
40	1259	3.4	0
40	1311	3.5	0
40	1363	3.6	0
40	1415	3.7	0
40	1518	3.8	0
40	1519	3.9	0
40	1673	4	0
40	1674	4.1	20.375868648058
40	1675	4.2	0
40	1676	4.3	0
40	1677	4.4	0
40	1729	4.5	0
40	1781	4.6	0
40	1833	4.7	0
40	1936	4.8	0
40	1937	4.9	0
40	2091	5	0
40	2092	5.1	-3.2339890501462
40	2093	5.2	0
40	2094	5.3	0
40	2095	5.4	0
40	2147	5.5	0
40	2199	5.6	0
40	2251	5.7	0
40	2354	5.8	0
40	2355	5.9	0
40	2509	6	0
40	2510	6.1	-24.816099704339
40	2511	6.2	0
40	2512	6.3	0
40	2513	6.4	0
40	2565	6.5	0
40	2617	6.6	0
40	2669	6.7	0
40	2772	6.8	0
40	2773	6.9	0
40	2927	7	0
40	2928	7.1	-3.9554414001759
40	2929	7.2	0
40	2930	7.3	0
40	2931	7.4	0
40	2983	7.5	0
40	3035	7.6	0
40	3087	7.7	0
40	3190	7.8	0
40	3191	7.9	0
40	3345	8	0
40	3346	8.1	17.626134104794
40	3347	8.2	0
40	3348	8.3	0
40	3349	8.4	0
40	3401	8.5	0
40	3453	8.6	0
40	3505	8.7	0
40	3608	8.8	0
40	3609	8.9	0
40	3763	9	0
40	3764	9.1	14.07928625471
40	3765	9.2	0
40	3766	9.3	0
40	3767	9.4	0
40	3768	9.5	0
40	3814	9.6	0
40	3860	9.7	0
40	3951	9.8	0
40	3952	9.9	0
40	4088	10	0
40	4089	10.1	21.050269616535
40	4090	10.2	0
40	4091	10.3	0
40	4092	10.4	0
40	4093	10.5	0
40	4139	10.6	0
40	4185	10.7	0
40	4276	10.8	0
40	4277	10.9	0
40	4413	11	0
28	3	0.2	0
28	4	0.3	0
28	5	0.4	0
28	57	0.5	0
28	109	0.6	0
28	161	0.7	0
28	264	0.8	0
28	265	0.9	0
28	419	1	0
28	420	1.1	1.754513483448
28	421	1.2	1.754513483448
28	422	1.3	1.754513483448
28	423	1.4	1.754513483448
28	475	1.5	1.754513483448
28	527	1.6	1.754513483448
28	579	1.7	1.754513483448
28	682	1.8	1.754513483448
28	683	1.9	1.754513483448
28	837	2	1.754513483448
28	838	2.1	4.2556994849583
28	839	2.2	4.2556994849583
28	840	2.3	4.2556994849583
28	841	2.4	4.2556994849583
28	893	2.5	4.2556994849583
28	945	2.6	4.2556994849583
28	997	2.7	4.2556994849583
28	1100	2.8	4.2556994849583
28	1101	2.9	4.2556994849583
28	1255	3	4.2556994849583
28	1256	3.1	6.198610096029
28	1257	3.2	6.198610096029
28	1258	3.3	6.198610096029
28	1259	3.4	6.198610096029
28	1311	3.5	6.198610096029
28	1363	3.6	6.198610096029
28	1415	3.7	6.198610096029
28	1518	3.8	6.198610096029
28	1519	3.9	6.198610096029
28	1673	4	6.198610096029
28	1674	4.1	8.2361969608348
28	1675	4.2	8.2361969608348
28	1676	4.3	8.2361969608348
28	1677	4.4	8.2361969608348
28	1729	4.5	8.2361969608348
28	1781	4.6	8.2361969608348
28	1833	4.7	8.2361969608348
28	1936	4.8	8.2361969608348
28	1937	4.9	8.2361969608348
28	2091	5	8.2361969608348
28	2092	5.1	7.9127980558202
28	2093	5.2	7.9127980558202
28	2094	5.3	7.9127980558202
28	2095	5.4	7.9127980558202
28	2147	5.5	7.9127980558202
28	2199	5.6	7.9127980558202
28	2251	5.7	7.9127980558202
28	2354	5.8	7.9127980558202
28	2355	5.9	7.9127980558202
28	2509	6	7.9127980558202
28	2510	6.1	5.4311880853863
28	2511	6.2	5.4311880853863
28	2512	6.3	5.4311880853863
28	2513	6.4	5.4311880853863
28	2565	6.5	5.4311880853863
28	2617	6.6	5.4311880853863
28	2669	6.7	5.4311880853863
28	2772	6.8	5.4311880853863
28	2773	6.9	5.4311880853863
28	2927	7	5.4311880853863
28	2928	7.1	5.0356439453687
28	2929	7.2	5.0356439453687
28	2930	7.3	5.0356439453687
28	2931	7.4	5.0356439453687
28	2983	7.5	5.0356439453687
28	3035	7.6	5.0356439453687
28	3087	7.7	5.0356439453687
28	3190	7.8	5.0356439453687
28	3191	7.9	5.0356439453687
28	3345	8	5.0356439453687
28	3346	8.1	6.7982573558481
28	3347	8.2	6.7982573558481
28	3348	8.3	6.7982573558481
28	3349	8.4	6.7982573558481
28	3401	8.5	6.7982573558481
28	3453	8.6	6.7982573558481
28	3505	8.7	6.7982573558481
28	3608	8.8	6.7982573558481
28	3609	8.9	6.7982573558481
28	3763	9	6.7982573558481
28	3764	9.1	8.2061859813191
28	3765	9.2	8.2061859813191
28	3766	9.3	8.2061859813191
28	3767	9.4	8.2061859813191
28	3768	9.5	8.2061859813191
28	3814	9.6	8.2061859813191
28	3860	9.7	8.2061859813191
28	3951	9.8	8.2061859813191
28	3952	9.9	8.2061859813191
28	4088	10	8.2061859813191
28	4089	10.1	10.311212942973
28	4090	10.2	10.311212942973
28	4091	10.3	10.311212942973
28	4092	10.4	10.311212942973
28	4093	10.5	10.311212942973
28	4139	10.6	10.311212942973
28	4185	10.7	10.311212942973
28	4276	10.8	10.311212942973
28	4277	10.9	10.311212942973
28	4413	11	10.311212942973
13	2	0.1	30.1
13	3	0.2	30.1
13	4	0.3	30.1
13	5	0.4	30.1
13	57	0.5	30.1
13	109	0.6	30.1
13	161	0.7	30.1
13	264	0.8	30.1
13	265	0.9	30.1
13	419	1	30.1
13	420	1.1	30.1
13	421	1.2	31.854513483448
13	422	1.3	31.854513483448
13	423	1.4	31.854513483448
13	475	1.5	31.854513483448
13	527	1.6	31.854513483448
13	579	1.7	31.854513483448
13	682	1.8	31.854513483448
13	683	1.9	31.854513483448
13	837	2	31.854513483448
13	838	2.1	31.854513483448
13	839	2.2	36.110212968406
13	840	2.3	36.110212968406
13	841	2.4	36.110212968406
13	893	2.5	36.110212968406
13	945	2.6	36.110212968406
13	997	2.7	36.110212968406
13	1100	2.8	36.110212968406
13	1101	2.9	36.110212968406
13	1255	3	36.110212968406
13	1256	3.1	36.110212968406
13	1257	3.2	42.308823064435
13	1258	3.3	42.308823064435
13	1259	3.4	42.308823064435
13	1311	3.5	42.308823064435
13	1363	3.6	42.308823064435
13	1415	3.7	42.308823064435
13	1518	3.8	42.308823064435
13	1519	3.9	42.308823064435
13	1673	4	42.308823064435
13	1674	4.1	42.308823064435
13	1675	4.2	50.54502002527
13	1676	4.3	50.54502002527
13	1677	4.4	50.54502002527
13	1729	4.5	50.54502002527
13	1781	4.6	50.54502002527
13	1833	4.7	50.54502002527
13	1936	4.8	50.54502002527
13	1937	4.9	50.54502002527
13	2091	5	50.54502002527
13	2092	5.1	50.54502002527
13	2093	5.2	58.45781808109
13	2094	5.3	58.45781808109
13	2095	5.4	58.45781808109
13	2147	5.5	58.45781808109
13	2199	5.6	58.45781808109
13	2251	5.7	58.45781808109
13	2354	5.8	58.45781808109
13	2355	5.9	58.45781808109
13	2509	6	58.45781808109
13	2510	6.1	58.45781808109
13	2511	6.2	63.606181545789
13	2512	6.3	63.606181545789
13	2513	6.4	63.606181545789
13	2565	6.5	63.606181545789
13	2617	6.6	63.606181545789
13	2669	6.7	63.606181545789
13	2772	6.8	63.606181545789
13	2773	6.9	63.606181545789
13	2927	7	63.606181545789
13	2928	7.1	63.606181545789
13	2929	7.2	65.2
13	2930	7.3	65.2
13	2931	7.4	65.2
13	2983	7.5	65.2
13	3035	7.6	65.2
13	3087	7.7	65.2
13	3190	7.8	65.2
13	3191	7.9	65.2
13	3345	8	65.2
13	3346	8.1	65.2
13	3347	8.2	65.2
13	3348	8.3	65.2
13	3349	8.4	65.2
13	3401	8.5	65.2
13	3453	8.6	65.2
13	3505	8.7	65.2
13	3608	8.8	65.2
13	3609	8.9	65.2
13	3763	9	65.2
13	3764	9.1	65.2
13	3765	9.2	65.2
13	3766	9.3	65.2
13	3767	9.4	65.2
13	3768	9.5	65.2
13	3814	9.6	65.2
13	3860	9.7	65.2
13	3951	9.8	65.2
13	3952	9.9	65.2
13	4088	10	65.2
13	4089	10.1	65.2
13	4090	10.2	65.2
13	4091	10.3	65.2
13	4092	10.4	65.2
13	4093	10.5	65.2
13	4139	10.6	65.2
13	4185	10.7	65.2
13	4276	10.8	65.2
13	4277	10.9	65.2
13	4413	11	65.2
12	2	0.1	65.2
12	3	0.2	65.2
12	4	0.3	65.2
12	5	0.4	65.2
12	57	0.5	65.2
12	109	0.6	65.2
12	161	0.7	65.2
12	264	0.8	65.2
12	265	0.9	65.2
12	419	1	65.2
12	420	1.1	65.2
12	421	1.2	65.2
12	422	1.3	65.2
12	423	1.4	65.2
12	475	1.5	65.2
12	527	1.6	65.2
12	579	1.7	65.2
12	682	1.8	65.2
12	683	1.9	65.2
12	837	2	65.2
12	838	2.1	65.2
12	839	2.2	65.2
12	840	2.3	65.2
12	841	2.4	65.2
12	893	2.5	65.2
12	945	2.6	65.2
12	997	2.7	65.2
12	1100	2.8	65.2
12	1101	2.9	65.2
12	1255	3	65.2
12	1256	3.1	65.2
12	1257	3.2	65.2
12	1258	3.3	65.2
12	1259	3.4	65.2
12	1311	3.5	65.2
12	1363	3.6	65.2
12	1415	3.7	65.2
12	1518	3.8	65.2
12	1519	3.9	65.2
12	1673	4	65.2
12	1674	4.1	65.2
12	1675	4.2	65.2
12	1676	4.3	65.2
12	1677	4.4	65.2
12	1729	4.5	65.2
12	1781	4.6	65.2
12	1833	4.7	65.2
12	1936	4.8	65.2
12	1937	4.9	65.2
12	2091	5	65.2
12	2092	5.1	65.2
12	2093	5.2	65.2
12	2094	5.3	65.2
12	2095	5.4	65.2
12	2147	5.5	65.2
12	2199	5.6	65.2
12	2251	5.7	65.2
12	2354	5.8	65.2
12	2355	5.9	65.2
12	2509	6	65.2
12	2510	6.1	65.2
12	2511	6.2	63.916291072526
12	2512	6.3	63.916291072526
12	2513	6.4	63.916291072526
12	2565	6.5	63.916291072526
12	2617	6.6	63.916291072526
12	2669	6.7	63.916291072526
12	2772	6.8	63.916291072526
12	2773	6.9	63.916291072526
12	2927	7	63.916291072526
12	2928	7.1	63.916291072526
12	2929	7.2	59.305349888155
12	2930	7.3	59.305349888155
12	2931	7.4	59.305349888155
12	2983	7.5	59.305349888155
12	3035	7.6	59.305349888155
12	3087	7.7	59.305349888155
12	3190	7.8	59.305349888155
12	3191	7.9	59.305349888155
12	3345	8	59.305349888155
12	3346	8.1	59.305349888155
12	3347	8.2	52.507092532307
12	3348	8.3	52.507092532307
12	3349	8.4	52.507092532307
12	3401	8.5	52.507092532307
12	3453	8.6	52.507092532307
12	3505	8.7	52.507092532307
12	3608	8.8	52.507092532307
12	3609	8.9	52.507092532307
12	3763	9	52.507092532307
12	3764	9.1	52.507092532307
12	3765	9.2	44.300906550988
12	3766	9.3	44.300906550988
12	3767	9.4	44.300906550988
12	3768	9.5	44.300906550988
12	3814	9.6	44.300906550988
12	3860	9.7	44.300906550988
12	3951	9.8	44.300906550988
12	3952	9.9	44.300906550988
12	4088	10	44.300906550988
12	4089	10.1	44.300906550988
12	4090	10.2	33.989693608015
12	4091	10.3	33.989693608015
12	4092	10.4	33.989693608015
12	4093	10.5	33.989693608015
12	4139	10.6	33.989693608015
12	4185	10.7	33.989693608015
12	4276	10.8	33.989693608015
12	4277	10.9	33.989693608015
12	4413	11	33.989693608015
20	2	0.1	2.297668033615e+18
20	3	0.2	2.297668033615e+18
20	4	0.3	2.297668033615e+18
20	5	0.4	2.297668033615e+18
20	57	0.5	2.297668033615e+18
20	109	0.6	2.297668033615e+18
20	161	0.7	2.297668033615e+18
20	264	0.8	2.297668033615e+18
20	265	0.9	2.297668033615e+18
20	419	1	2.297668033615e+18
20	420	1.1	2.297668033615e+18
20	421	1.2	2.297668033615e+18
20	422	1.3	2.297668033615e+18
20	423	1.4	2.297668033615e+18
20	475	1.5	2.297668033615e+18
20	527	1.6	2.297668033615e+18
20	579	1.7	2.297668033615e+18
20	682	1.8	2.297668033615e+18
20	683	1.9	2.297668033615e+18
20	837	2	2.297668033615e+18
20	838	2.1	2.297668033615e+18
20	839	2.2	2.297668033615e+18
20	840	2.3	2.297668033615e+18
20	841	2.4	2.297668033615e+18
20	893	2.5	2.297668033615e+18
20	945	2.6	2.297668033615e+18
20	997	2.7	2.297668033615e+18
20	1100	2.8	2.297668033615e+18
20	1101	2.9	2.297668033615e+18
20	1255	3	2.297668033615e+18
20	1256	3.1	2.297668033615e+18
20	1257	3.2	2.297668033615e+18
20	1258	3.3	2.297668033615e+18
20	1259	3.4	2.297668033615e+18
20	1311	3.5	2.297668033615e+18
20	1363	3.6	2.297668033615e+18
20	1415	3.7	2.297668033615e+18
20	1518	3.8	2.297668033615e+18
20	1519	3.9	2.297668033615e+18
20	1673	4	2.297668033615e+18
20	1674	4.1	2.297668033615e+18
20	1675	4.2	2.297668033615e+18
20	1676	4.3	2.297668033615e+18
20	1677	4.4	2.297668033615e+18
20	1729	4.5	2.297668033615e+18
20	1781	4.6	2.297668033615e+18
20	1833	4.7	2.297668033615e+18
20	1936	4.8	2.297668033615e+18
20	1937	4.9	2.297668033615e+18
20	2091	5	2.297668033615e+18
20	2092	5.1	2.297668033615e+18
20	2093	5.2	2.297668033615e+18
20	2094	5.3	2.297668033615e+18
20	2095	5.4	2.297668033615e+18
20	2147	5.5	2.297668033615e+18
20	2199	5.6	2.297668033615e+18
20	2251	5.7	2.297668033615e+18
20	2354	5.8	2.297668033615e+18
20	2355	5.9	2.297668033615e+18
20	2509	6	2.297668033615e+18
20	2510	6.1	2.297668033615e+18
20	2511	6.2	2.297668033615e+18
20	2512	6.3	2.297668033615e+18
20	2513	6.4	2.297668033615e+18
20	2565	6.5	2.297668033615e+18
20	2617	6.6	2.297668033615e+18
20	2669	6.7	2.297668033615e+18
20	2772	6.8	2.297668033615e+18
20	2773	6.9	2.297668033615e+18
20	2927	7	2.297668033615e+18
20	2928	7.1	2.297668033615e+18
20	2929	7.2	2.297668033615e+18
20	2930	7.3	2.297668033615e+18
20	2931	7.4	2.297668033615e+18
20	2983	7.5	2.297668033615e+18
20	3035	7.6	2.297668033615e+18
20	3087	7.7	2.297668033615e+18
20	3190	7.8	2.297668033615e+18
20	3191	7.9	2.297668033615e+18
20	3345	8	2.297668033615e+18
20	3346	8.1	2.297668033615e+18
20	3347	8.2	2.297668033615e+18
20	3348	8.3	2.297668033615e+18
20	3349	8.4	2.297668033615e+18
20	3401	8.5	2.297668033615e+18
20	3453	8.6	2.297668033615e+18
20	3505	8.7	2.297668033615e+18
20	3608	8.8	2.297668033615e+18
20	3609	8.9	2.297668033615e+18
20	3763	9	2.297668033615e+18
20	3764	9.1	2.297668033615e+18
20	3765	9.2	2.297668033615e+18
20	3766	9.3	2.297668033615e+18
20	3767	9.4	2.297668033615e+18
20	3768	9.5	2.297668033615e+18
20	3814	9.6	2.297668033615e+18
20	3860	9.7	2.297668033615e+18
20	3951	9.8	2.297668033615e+18
20	3952	9.9	2.297668033615e+18
20	4088	10	2.297668033615e+18
20	4089	10.1	2.297668033615e+18
20	4090	10.2	2.297668033615e+18
20	4091	10.3	2.297668033615e+18
20	4092	10.4	2.297668033615e+18
20	4093	10.5	2.297668033615e+18
20	4139	10.6	2.297668033615e+18
20	4185	10.7	2.297668033615e+18
20	4276	10.8	2.297668033615e+18
20	4277	10.9	2.297668033615e+18
20	4413	11	2.297668033615e+18
45	4	0.3	0.973
45	5	0.4	0.973
45	57	0.5	0.973
45	109	0.6	0.973
45	161	0.7	0.973
45	264	0.8	0.973
45	265	0.9	0.973
45	419	1	0.973
45	420	1.1	5.5805497502992
45	421	1.2	1.1754476819349
45	422	1.3	1.1754476819349
45	423	1.4	1.1754476819349
45	475	1.5	1.1754476819349
45	527	1.6	1.1754476819349
45	579	1.7	1.1754476819349
45	682	1.8	1.1754476819349
45	683	1.9	1.1754476819349
45	837	2	1.1754476819349
45	838	2.1	20.358610762301
45	839	2.2	1.2863792589096
45	840	2.3	1.2863792589096
45	841	2.4	1.2863792589096
45	893	2.5	1.2863792589096
45	945	2.6	1.2863792589096
45	997	2.7	1.2863792589096
45	1100	2.8	1.2863792589096
45	1101	2.9	1.2863792589096
45	1255	3	1.2863792589096
45	1256	3.1	22.808053436184
45	1257	3.2	1.3771779404394
45	1258	3.3	1.3771779404394
45	1259	3.4	1.3771779404394
45	1311	3.5	1.3771779404394
45	1363	3.6	1.3771779404394
45	1415	3.7	1.3771779404394
45	1518	3.8	1.3771779404394
45	1519	3.9	1.3771779404394
45	1673	4	1.3771779404394
45	1674	4.1	49.058635782447
45	1675	4.2	1.5295337551548
45	1676	4.3	1.5295337551548
45	1677	4.4	1.5295337551548
45	1729	4.5	1.5295337551548
45	1781	4.6	1.5295337551548
45	1833	4.7	1.5295337551548
45	1936	4.8	1.5295337551548
45	1937	4.9	1.5295337551548
45	2091	5	1.5295337551548
45	2092	5.1	30.104831817329
45	2093	5.2	1.617979555301
45	2094	5.3	1.617979555301
45	2095	5.4	1.617979555301
45	2147	5.5	1.617979555301
45	2199	5.6	1.617979555301
45	2251	5.7	1.617979555301
45	2354	5.8	1.617979555301
45	2355	5.9	1.617979555301
45	2509	6	1.617979555301
45	2510	6.1	0.973
45	2511	6.2	1.404474677346
45	2512	6.3	1.404474677346
45	2513	6.4	1.404474677346
45	2565	6.5	1.404474677346
45	2617	6.6	1.404474677346
45	2669	6.7	1.404474677346
45	2772	6.8	1.404474677346
45	2773	6.9	1.404474677346
45	2927	7	1.404474677346
45	2928	7.1	7.3365404934357
45	2929	7.2	1.4276418305828
45	2930	7.3	1.4276418305828
45	2931	7.4	1.4276418305828
45	2983	7.5	1.4276418305828
45	3035	7.6	1.4276418305828
45	3087	7.7	1.4276418305828
45	3190	7.8	1.4276418305828
45	3191	7.9	1.4276418305828
45	3345	8	1.4276418305828
45	3346	8.1	32.562942304245
45	3347	8.2	1.5296800916487
45	3348	8.3	1.5296800916487
45	3349	8.4	1.5296800916487
45	3401	8.5	1.5296800916487
45	3453	8.6	1.5296800916487
45	3505	8.7	1.5296800916487
45	3608	8.8	1.5296800916487
45	3609	8.9	1.5296800916487
45	3763	9	1.5296800916487
45	3764	9.1	59.987764051435
45	3765	9.2	1.6978727493369
45	3766	9.3	1.6978727493369
45	3767	9.4	1.6978727493369
45	3768	9.5	1.6978727493369
45	3814	9.6	1.6978727493369
45	3860	9.7	1.6978727493369
45	3951	9.8	1.6978727493369
45	3952	9.9	1.6978727493369
45	4088	10	1.6978727493369
45	4089	10.1	56.131816782562
45	4090	10.2	1.8521926399817
45	4091	10.3	1.8521926399817
45	4092	10.4	1.8521926399817
45	4093	10.5	1.8521926399817
45	4139	10.6	1.8521926399817
45	4185	10.7	1.8521926399817
45	4276	10.8	1.8521926399817
45	4277	10.9	1.8521926399817
45	4413	11	1.8521926399817
44	4	0.3	0
44	5	0.4	0
44	57	0.5	0
44	109	0.6	0
44	161	0.7	0
44	264	0.8	0
44	265	0.9	0
44	419	1	0
44	420	1.1	13.519775079098
44	421	1.2	0
44	422	1.3	0
44	423	1.4	0
44	475	1.5	0
44	527	1.6	0
44	579	1.7	0
44	682	1.8	0
44	683	1.9	0
44	837	2	0
44	838	2.1	22.172360560158
44	839	2.2	0
44	840	2.3	0
44	841	2.4	0
44	893	2.5	0
44	945	2.6	0
44	997	2.7	0
44	1100	2.8	0
44	1101	2.9	0
44	1255	3	0
44	1256	3.1	16.906343355775
44	1257	3.2	0
44	1258	3.3	0
44	1259	3.4	0
44	1311	3.5	0
44	1363	3.6	0
44	1415	3.7	0
44	1518	3.8	0
44	1519	3.9	0
44	1673	4	0
44	1674	4.1	25.312889968278
44	1675	4.2	0
44	1676	4.3	0
44	1677	4.4	0
44	1729	4.5	0
44	1781	4.6	0
44	1833	4.7	0
44	1936	4.8	0
44	1937	4.9	0
44	2091	5	0
44	2092	5.1	13.001725175185
44	2093	5.2	0
44	2094	5.3	0
44	2095	5.4	0
44	2147	5.5	0
44	2199	5.6	0
44	2251	5.7	0
44	2354	5.8	0
44	2355	5.9	0
44	2509	6	0
44	2510	6.1	-33.494539504091
44	2511	6.2	0
44	2512	6.3	0
44	2513	6.4	0
44	2565	6.5	0
44	2617	6.6	0
44	2669	6.7	0
44	2772	6.8	0
44	2773	6.9	0
44	2927	7	0
44	2928	7.1	3.992482898524
44	2929	7.2	0
44	2930	7.3	0
44	2931	7.4	0
44	2983	7.5	0
44	3035	7.6	0
44	3087	7.7	0
44	3190	7.8	0
44	3191	7.9	0
44	3345	8	0
44	3346	8.1	16.52282136376
44	3347	8.2	0
44	3348	8.3	0
44	3349	8.4	0
44	3401	8.5	0
44	3453	8.6	0
44	3505	8.7	0
44	3608	8.8	0
44	3609	8.9	0
44	3763	9	0
44	3764	9.1	23.779299757211
44	3765	9.2	0
44	3766	9.3	0
44	3767	9.4	0
44	3768	9.5	0
44	3814	9.6	0
44	3860	9.7	0
44	3951	9.8	0
44	3952	9.9	0
44	4088	10	0
44	4089	10.1	18.703885182505
44	4090	10.2	0
44	4091	10.3	0
44	4092	10.4	0
44	4093	10.5	0
44	4139	10.6	0
44	4185	10.7	0
44	4276	10.8	0
44	4277	10.9	0
44	4413	11	0
30	3	0.2	0
30	4	0.3	0
30	5	0.4	0
30	57	0.5	0
30	109	0.6	0
30	161	0.7	0
30	264	0.8	0
30	265	0.9	0
30	419	1	0
30	420	1.1	1.3519775079098
30	421	1.2	1.3519775079098
30	422	1.3	1.3519775079098
30	423	1.4	1.3519775079098
30	475	1.5	1.3519775079098
30	527	1.6	1.3519775079098
30	579	1.7	1.3519775079098
30	682	1.8	1.3519775079098
30	683	1.9	1.3519775079098
30	837	2	1.3519775079098
30	838	2.1	3.5692135639256
30	839	2.2	3.5692135639256
30	840	2.3	3.5692135639256
30	841	2.4	3.5692135639256
30	893	2.5	3.5692135639256
30	945	2.6	3.5692135639256
30	997	2.7	3.5692135639256
30	1100	2.8	3.5692135639256
30	1101	2.9	3.5692135639256
30	1255	3	3.5692135639256
30	1256	3.1	5.2598478995031
30	1257	3.2	5.2598478995031
30	1258	3.3	5.2598478995031
30	1259	3.4	5.2598478995031
30	1311	3.5	5.2598478995031
30	1363	3.6	5.2598478995031
30	1415	3.7	5.2598478995031
30	1518	3.8	5.2598478995031
30	1519	3.9	5.2598478995031
30	1673	4	5.2598478995031
30	1674	4.1	7.7911368963309
30	1675	4.2	7.7911368963309
30	1676	4.3	7.7911368963309
30	1677	4.4	7.7911368963309
30	1729	4.5	7.7911368963309
30	1781	4.6	7.7911368963309
30	1833	4.7	7.7911368963309
30	1936	4.8	7.7911368963309
30	1937	4.9	7.7911368963309
30	2091	5	7.7911368963309
30	2092	5.1	9.0913094138494
30	2093	5.2	9.0913094138494
30	2094	5.3	9.0913094138494
30	2095	5.4	9.0913094138494
30	2147	5.5	9.0913094138494
30	2199	5.6	9.0913094138494
30	2251	5.7	9.0913094138494
30	2354	5.8	9.0913094138494
30	2355	5.9	9.0913094138494
30	2509	6	9.0913094138494
30	2510	6.1	5.7418554634402
30	2511	6.2	5.7418554634402
30	2512	6.3	5.7418554634402
30	2513	6.4	5.7418554634402
30	2565	6.5	5.7418554634402
30	2617	6.6	5.7418554634402
30	2669	6.7	5.7418554634402
30	2772	6.8	5.7418554634402
30	2773	6.9	5.7418554634402
30	2927	7	5.7418554634402
30	2928	7.1	6.1411037532926
30	2929	7.2	6.1411037532926
30	2930	7.3	6.1411037532926
30	2931	7.4	6.1411037532926
30	2983	7.5	6.1411037532926
30	3035	7.6	6.1411037532926
30	3087	7.7	6.1411037532926
30	3190	7.8	6.1411037532926
30	3191	7.9	6.1411037532926
30	3345	8	6.1411037532926
30	3346	8.1	7.7933858896687
30	3347	8.2	7.7933858896687
30	3348	8.3	7.7933858896687
30	3349	8.4	7.7933858896687
30	3401	8.5	7.7933858896687
30	3453	8.6	7.7933858896687
30	3505	8.7	7.7933858896687
30	3608	8.8	7.7933858896687
30	3609	8.9	7.7933858896687
30	3763	9	7.7933858896687
30	3764	9.1	10.17131586539
30	3765	9.2	10.17131586539
30	3766	9.3	10.17131586539
30	3767	9.4	10.17131586539
30	3768	9.5	10.17131586539
30	3814	9.6	10.17131586539
30	3860	9.7	10.17131586539
30	3951	9.8	10.17131586539
30	3952	9.9	10.17131586539
30	4088	10	10.17131586539
30	4089	10.1	12.04170438364
30	4090	10.2	12.04170438364
30	4091	10.3	12.04170438364
30	4092	10.4	12.04170438364
30	4093	10.5	12.04170438364
30	4139	10.6	12.04170438364
30	4185	10.7	12.04170438364
30	4276	10.8	12.04170438364
30	4277	10.9	12.04170438364
30	4413	11	12.04170438364
19	2	0.1	109.9
19	3	0.2	109.9
19	4	0.3	109.9
19	5	0.4	109.9
19	57	0.5	109.9
19	109	0.6	109.9
19	161	0.7	109.9
19	264	0.8	109.9
19	265	0.9	109.9
19	419	1	109.9
19	420	1.1	109.9
19	421	1.2	108.54802249209
19	422	1.3	108.54802249209
19	423	1.4	108.54802249209
19	475	1.5	108.54802249209
19	527	1.6	108.54802249209
19	579	1.7	108.54802249209
19	682	1.8	108.54802249209
19	683	1.9	108.54802249209
19	837	2	108.54802249209
19	838	2.1	108.54802249209
19	839	2.2	104.97880892816
19	840	2.3	104.97880892816
19	841	2.4	104.97880892816
19	893	2.5	104.97880892816
19	945	2.6	104.97880892816
19	997	2.7	104.97880892816
19	1100	2.8	104.97880892816
19	1101	2.9	104.97880892816
19	1255	3	104.97880892816
19	1256	3.1	104.97880892816
19	1257	3.2	99.718961028662
19	1258	3.3	99.718961028662
19	1259	3.4	99.718961028662
19	1311	3.5	99.718961028662
19	1363	3.6	99.718961028662
19	1415	3.7	99.718961028662
19	1518	3.8	99.718961028662
19	1519	3.9	99.718961028662
19	1673	4	99.718961028662
19	1674	4.1	99.718961028662
19	1675	4.2	91.927824132331
19	1676	4.3	91.927824132331
19	1677	4.4	91.927824132331
19	1729	4.5	91.927824132331
19	1781	4.6	91.927824132331
19	1833	4.7	91.927824132331
19	1936	4.8	91.927824132331
19	1937	4.9	91.927824132331
19	2091	5	91.927824132331
19	2092	5.1	91.927824132331
19	2093	5.2	82.836514718481
19	2094	5.3	82.836514718481
19	2095	5.4	82.836514718481
19	2147	5.5	82.836514718481
19	2199	5.6	82.836514718481
19	2251	5.7	82.836514718481
19	2354	5.8	82.836514718481
19	2355	5.9	82.836514718481
19	2509	6	82.836514718481
19	2510	6.1	82.836514718481
19	2511	6.2	77.237436656028
19	2512	6.3	77.237436656028
19	2513	6.4	77.237436656028
19	2565	6.5	77.237436656028
19	2617	6.6	77.237436656028
19	2669	6.7	77.237436656028
19	2772	6.8	77.237436656028
19	2773	6.9	77.237436656028
19	2927	7	77.237436656028
19	2928	7.1	77.237436656028
19	2929	7.2	74.8
19	2930	7.3	74.8
19	2931	7.4	74.8
19	2983	7.5	74.8
19	3035	7.6	74.8
19	3087	7.7	74.8
19	3190	7.8	74.8
19	3191	7.9	74.8
19	3345	8	74.8
19	3346	8.1	74.8
19	3347	8.2	74.8
19	3348	8.3	74.8
19	3349	8.4	74.8
19	3401	8.5	74.8
19	3453	8.6	74.8
19	3505	8.7	74.8
19	3608	8.8	74.8
19	3609	8.9	74.8
19	3763	9	74.8
19	3764	9.1	74.8
19	3765	9.2	74.8
19	3766	9.3	74.8
19	3767	9.4	74.8
19	3768	9.5	74.8
19	3814	9.6	74.8
19	3860	9.7	74.8
19	3951	9.8	74.8
19	3952	9.9	74.8
19	4088	10	74.8
19	4089	10.1	74.8
19	4090	10.2	74.8
19	4091	10.3	74.8
19	4092	10.4	74.8
19	4093	10.5	74.8
19	4139	10.6	74.8
19	4185	10.7	74.8
19	4276	10.8	74.8
19	4277	10.9	74.8
19	4413	11	74.8
18	2	0.1	74.8
18	3	0.2	74.8
18	4	0.3	74.8
18	5	0.4	74.8
18	57	0.5	74.8
18	109	0.6	74.8
18	161	0.7	74.8
18	264	0.8	74.8
18	265	0.9	74.8
18	419	1	74.8
18	420	1.1	74.8
18	421	1.2	74.8
18	422	1.3	74.8
18	423	1.4	74.8
18	475	1.5	74.8
18	527	1.6	74.8
18	579	1.7	74.8
18	682	1.8	74.8
18	683	1.9	74.8
18	837	2	74.8
18	838	2.1	74.8
18	839	2.2	74.8
18	840	2.3	74.8
18	841	2.4	74.8
18	893	2.5	74.8
18	945	2.6	74.8
18	997	2.7	74.8
18	1100	2.8	74.8
18	1101	2.9	74.8
18	1255	3	74.8
18	1256	3.1	74.8
18	1257	3.2	74.8
18	1258	3.3	74.8
18	1259	3.4	74.8
18	1311	3.5	74.8
18	1363	3.6	74.8
18	1415	3.7	74.8
18	1518	3.8	74.8
18	1519	3.9	74.8
18	1673	4	74.8
18	1674	4.1	74.8
18	1675	4.2	74.8
18	1676	4.3	74.8
18	1677	4.4	74.8
18	1729	4.5	74.8
18	1781	4.6	74.8
18	1833	4.7	74.8
18	1936	4.8	74.8
18	1937	4.9	74.8
18	2091	5	74.8
18	2092	5.1	74.8
18	2093	5.2	74.8
18	2094	5.3	74.8
18	2095	5.4	74.8
18	2147	5.5	74.8
18	2199	5.6	74.8
18	2251	5.7	74.8
18	2354	5.8	74.8
18	2355	5.9	74.8
18	2509	6	74.8
18	2510	6.1	74.8
18	2511	6.2	75.577538006383
18	2512	6.3	75.577538006383
18	2513	6.4	75.577538006383
18	2565	6.5	75.577538006383
18	2617	6.6	75.577538006383
18	2669	6.7	75.577538006383
18	2772	6.8	75.577538006383
18	2773	6.9	75.577538006383
18	2927	7	75.577538006383
18	2928	7.1	75.577538006383
18	2929	7.2	80.816444498252
18	2930	7.3	80.816444498252
18	2931	7.4	80.816444498252
18	2983	7.5	80.816444498252
18	3035	7.6	80.816444498252
18	3087	7.7	80.816444498252
18	3190	7.8	80.816444498252
18	3191	7.9	80.816444498252
18	3345	8	80.816444498252
18	3346	8.1	80.816444498252
18	3347	8.2	88.60983038792
18	3348	8.3	88.60983038792
18	3349	8.4	88.60983038792
18	3401	8.5	88.60983038792
18	3453	8.6	88.60983038792
18	3505	8.7	88.60983038792
18	3608	8.8	88.60983038792
18	3609	8.9	88.60983038792
18	3763	9	88.60983038792
18	3764	9.1	88.60983038792
18	3765	9.2	98.78114625331
18	3766	9.3	98.78114625331
18	3767	9.4	98.78114625331
18	3768	9.5	98.78114625331
18	3814	9.6	98.78114625331
18	3860	9.7	98.78114625331
18	3951	9.8	98.78114625331
18	3952	9.9	98.78114625331
18	4088	10	98.78114625331
18	4089	10.1	98.78114625331
18	4090	10.2	110.82285063695
18	4091	10.3	110.82285063695
18	4092	10.4	110.82285063695
18	4093	10.5	110.82285063695
18	4139	10.6	110.82285063695
18	4185	10.7	110.82285063695
18	4276	10.8	110.82285063695
18	4277	10.9	110.82285063695
18	4413	11	110.82285063695
23	2	0.1	1.0159970873492e+19
23	3	0.2	1.0159970873492e+19
23	4	0.3	1.0159970873492e+19
23	5	0.4	1.0159970873492e+19
23	57	0.5	1.0159970873492e+19
23	109	0.6	1.0159970873492e+19
23	161	0.7	1.0159970873492e+19
23	264	0.8	1.0159970873492e+19
23	265	0.9	1.0159970873492e+19
23	419	1	1.0159970873492e+19
23	420	1.1	1.0159970873492e+19
23	421	1.2	1.0159970873492e+19
23	422	1.3	1.0159970873492e+19
23	423	1.4	1.0159970873492e+19
23	475	1.5	1.0159970873492e+19
23	527	1.6	1.0159970873492e+19
23	579	1.7	1.0159970873492e+19
23	682	1.8	1.0159970873492e+19
23	683	1.9	1.0159970873492e+19
23	837	2	1.0159970873492e+19
23	838	2.1	1.0159970873492e+19
23	839	2.2	1.0159970873492e+19
23	840	2.3	1.0159970873492e+19
23	841	2.4	1.0159970873492e+19
23	893	2.5	1.0159970873492e+19
23	945	2.6	1.0159970873492e+19
23	997	2.7	1.0159970873492e+19
23	1100	2.8	1.0159970873492e+19
23	1101	2.9	1.0159970873492e+19
23	1255	3	1.0159970873492e+19
23	1256	3.1	1.0159970873492e+19
23	1257	3.2	1.0159970873492e+19
23	1258	3.3	1.0159970873492e+19
23	1259	3.4	1.0159970873492e+19
23	1311	3.5	1.0159970873492e+19
23	1363	3.6	1.0159970873492e+19
23	1415	3.7	1.0159970873492e+19
23	1518	3.8	1.0159970873492e+19
23	1519	3.9	1.0159970873492e+19
23	1673	4	1.0159970873492e+19
23	1674	4.1	1.0159970873492e+19
23	1675	4.2	1.0159970873492e+19
23	1676	4.3	1.0159970873492e+19
23	1677	4.4	1.0159970873492e+19
23	1729	4.5	1.0159970873492e+19
23	1781	4.6	1.0159970873492e+19
23	1833	4.7	1.0159970873492e+19
23	1936	4.8	1.0159970873492e+19
23	1937	4.9	1.0159970873492e+19
23	2091	5	1.0159970873492e+19
23	2092	5.1	1.0159970873492e+19
23	2093	5.2	1.0159970873492e+19
23	2094	5.3	1.0159970873492e+19
23	2095	5.4	1.0159970873492e+19
23	2147	5.5	1.0159970873492e+19
23	2199	5.6	1.0159970873492e+19
23	2251	5.7	1.0159970873492e+19
23	2354	5.8	1.0159970873492e+19
23	2355	5.9	1.0159970873492e+19
23	2509	6	1.0159970873492e+19
23	2510	6.1	1.0159970873492e+19
23	2511	6.2	1.0159970873492e+19
23	2512	6.3	1.0159970873492e+19
23	2513	6.4	1.0159970873492e+19
23	2565	6.5	1.0159970873492e+19
23	2617	6.6	1.0159970873492e+19
23	2669	6.7	1.0159970873492e+19
23	2772	6.8	1.0159970873492e+19
23	2773	6.9	1.0159970873492e+19
23	2927	7	1.0159970873492e+19
23	2928	7.1	1.0159970873492e+19
23	2929	7.2	1.0159970873492e+19
23	2930	7.3	1.0159970873492e+19
23	2931	7.4	1.0159970873492e+19
23	2983	7.5	1.0159970873492e+19
23	3035	7.6	1.0159970873492e+19
23	3087	7.7	1.0159970873492e+19
23	3190	7.8	1.0159970873492e+19
23	3191	7.9	1.0159970873492e+19
23	3345	8	1.0159970873492e+19
23	3346	8.1	1.0159970873492e+19
23	3347	8.2	1.0159970873492e+19
23	3348	8.3	1.0159970873492e+19
23	3349	8.4	1.0159970873492e+19
23	3401	8.5	1.0159970873492e+19
23	3453	8.6	1.0159970873492e+19
23	3505	8.7	1.0159970873492e+19
23	3608	8.8	1.0159970873492e+19
23	3609	8.9	1.0159970873492e+19
23	3763	9	1.0159970873492e+19
23	3764	9.1	1.0159970873492e+19
23	3765	9.2	1.0159970873492e+19
23	3766	9.3	1.0159970873492e+19
23	3767	9.4	1.0159970873492e+19
23	3768	9.5	1.0159970873492e+19
23	3814	9.6	1.0159970873492e+19
23	3860	9.7	1.0159970873492e+19
23	3951	9.8	1.0159970873492e+19
23	3952	9.9	1.0159970873492e+19
23	4088	10	1.0159970873492e+19
23	4089	10.1	1.0159970873492e+19
23	4090	10.2	1.0159970873492e+19
23	4091	10.3	1.0159970873492e+19
23	4092	10.4	1.0159970873492e+19
23	4093	10.5	1.0159970873492e+19
23	4139	10.6	1.0159970873492e+19
23	4185	10.7	1.0159970873492e+19
23	4276	10.8	1.0159970873492e+19
23	4277	10.9	1.0159970873492e+19
23	4413	11	1.0159970873492e+19
47	4	0.3	0.973
47	5	0.4	0.973
47	57	0.5	0.973
47	109	0.6	0.973
47	161	0.7	0.973
47	264	0.8	0.973
47	265	0.9	0.973
47	419	1	0.973
47	420	1.1	6.3806929888994
47	421	1.2	1.1811495240924
47	422	1.3	1.1811495240924
47	423	1.4	1.1811495240924
47	475	1.5	1.1811495240924
47	527	1.6	1.1811495240924
47	579	1.7	1.1811495240924
47	682	1.8	1.1811495240924
47	683	1.9	1.1811495240924
47	837	2	1.1811495240924
47	838	2.1	14.191015255373
47	839	2.2	1.2655550076089
47	840	2.3	1.2655550076089
47	841	2.4	1.2655550076089
47	893	2.5	1.2655550076089
47	945	2.6	1.2655550076089
47	997	2.7	1.2655550076089
47	1100	2.8	1.2655550076089
47	1101	2.9	1.2655550076089
47	1255	3	1.2655550076089
47	1256	3.1	23.602825393979
47	1257	3.2	1.3631332120943
47	1258	3.3	1.3631332120943
47	1259	3.4	1.3631332120943
47	1311	3.5	1.3631332120943
47	1363	3.6	1.3631332120943
47	1415	3.7	1.3631332120943
47	1518	3.8	1.3631332120943
47	1519	3.9	1.3631332120943
47	1673	4	1.3631332120943
47	1674	4.1	36.057337387278
47	1675	4.2	1.4820754729605
47	1676	4.3	1.4820754729605
47	1677	4.4	1.4820754729605
47	1729	4.5	1.4820754729605
47	1781	4.6	1.4820754729605
47	1833	4.7	1.4820754729605
47	1936	4.8	1.4820754729605
47	1937	4.9	1.4820754729605
47	2091	5	1.4820754729605
47	2092	5.1	51.679930229216
47	2093	5.2	1.6315866288476
47	2094	5.3	1.6315866288476
47	2095	5.4	1.6315866288476
47	2147	5.5	1.6315866288476
47	2199	5.6	1.6315866288476
47	2251	5.7	1.6315866288476
47	2354	5.8	1.6315866288476
47	2355	5.9	1.6315866288476
47	2509	6	1.6315866288476
47	2510	6.1	32.267765188528
47	2511	6.2	1.7226377059526
47	2512	6.3	1.7226377059526
47	2513	6.4	1.7226377059526
47	2565	6.5	1.7226377059526
47	2617	6.6	1.7226377059526
47	2669	6.7	1.7226377059526
47	2772	6.8	1.7226377059526
47	2773	6.9	1.7226377059526
47	2927	7	1.7226377059526
47	2928	7.1	0.973
47	2929	7.2	1.7143339447533
47	2930	7.3	1.7143339447533
47	2931	7.4	1.7143339447533
47	2983	7.5	1.7143339447533
47	3035	7.6	1.7143339447533
47	3087	7.7	1.7143339447533
47	3190	7.8	1.7143339447533
47	3191	7.9	1.7143339447533
47	3345	8	1.7143339447533
47	3346	8.1	5.4192053722182
47	3347	8.2	1.7257658526668
47	3348	8.3	1.7257658526668
47	3349	8.4	1.7257658526668
47	3401	8.5	1.7257658526668
47	3453	8.6	1.7257658526668
47	3505	8.7	1.7257658526668
47	3608	8.8	1.7257658526668
47	3609	8.9	1.7257658526668
47	3763	9	1.7257658526668
47	3764	9.1	0.973
47	3765	9.2	1.6896964971359
47	3766	9.3	1.6896964971359
47	3767	9.4	1.6896964971359
47	3768	9.5	1.6896964971359
47	3814	9.6	1.6896964971359
47	3860	9.7	1.6896964971359
47	3951	9.8	1.6896964971359
47	3952	9.9	1.6896964971359
47	4088	10	1.6896964971359
47	4089	10.1	0.973
47	4090	10.2	1.6842464503273
47	4091	10.3	1.6842464503273
47	4092	10.4	1.6842464503273
47	4093	10.5	1.6842464503273
47	4139	10.6	1.6842464503273
47	4185	10.7	1.6842464503273
47	4276	10.8	1.6842464503273
47	4277	10.9	1.6842464503273
47	4413	11	1.6842464503273
46	4	0.3	0
46	5	0.4	0
46	57	0.5	0
46	109	0.6	0
46	161	0.7	0
46	264	0.8	0
46	265	0.9	0
46	419	1	0
46	420	1.1	14.688386279158
46	421	1.2	0
46	422	1.3	0
46	423	1.4	0
46	475	1.5	0
46	527	1.6	0
46	579	1.7	0
46	682	1.8	0
46	683	1.9	0
46	837	2	0
46	838	2.1	16.951142302249
46	839	2.2	0
46	840	2.3	0
46	841	2.4	0
46	893	2.5	0
46	945	2.6	0
46	997	2.7	0
46	1100	2.8	0
46	1101	2.9	0
46	1255	3	0
46	1256	3.1	18.430399890523
46	1257	3.2	0
46	1258	3.3	0
46	1259	3.4	0
46	1311	3.5	0
46	1363	3.6	0
46	1415	3.7	0
46	1518	3.8	0
46	1519	3.9	0
46	1673	4	0
46	1674	4.1	20.367762609618
46	1675	4.2	0
46	1676	4.3	0
46	1677	4.4	0
46	1729	4.5	0
46	1781	4.6	0
46	1833	4.7	0
46	1936	4.8	0
46	1937	4.9	0
46	2091	5	0
46	2092	5.1	22.375093692681
46	2093	5.2	0
46	2094	5.3	0
46	2095	5.4	0
46	2147	5.5	0
46	2199	5.6	0
46	2251	5.7	0
46	2354	5.8	0
46	2355	5.9	0
46	2509	6	0
46	2510	6.1	12.082802598048
46	2511	6.2	0
46	2512	6.3	0
46	2513	6.4	0
46	2565	6.5	0
46	2617	6.6	0
46	2669	6.7	0
46	2772	6.8	0
46	2773	6.9	0
46	2927	7	0
46	2928	7.1	-1.0587910281029
46	2929	7.2	0
46	2930	7.3	0
46	2931	7.4	0
46	2983	7.5	0
46	3035	7.6	0
46	3087	7.7	0
46	3190	7.8	0
46	3191	7.9	0
46	3345	8	0
46	3346	8.1	1.4555169981904
46	3347	8.2	0
46	3348	8.3	0
46	3349	8.4	0
46	3401	8.5	0
46	3453	8.6	0
46	3505	8.7	0
46	3608	8.8	0
46	3609	8.9	0
46	3763	9	0
46	3764	9.1	-4.6463893214241
46	3765	9.2	0
46	3766	9.3	0
46	3767	9.4	0
46	3768	9.5	0
46	3814	9.6	0
46	3860	9.7	0
46	3951	9.8	0
46	3952	9.9	0
46	4088	10	0
46	4089	10.1	-0.71604122989811
46	4090	10.2	0
46	4091	10.3	0
46	4092	10.4	0
46	4093	10.5	0
46	4139	10.6	0
46	4185	10.7	0
46	4276	10.8	0
46	4277	10.9	0
46	4413	11	0
31	3	0.2	0
31	4	0.3	0
31	5	0.4	0
31	57	0.5	0
31	109	0.6	0
31	161	0.7	0
31	264	0.8	0
31	265	0.9	0
31	419	1	0
31	420	1.1	1.4688386279158
31	421	1.2	1.4688386279158
31	422	1.3	1.4688386279158
31	423	1.4	1.4688386279158
31	475	1.5	1.4688386279158
31	527	1.6	1.4688386279158
31	579	1.7	1.4688386279158
31	682	1.8	1.4688386279158
31	683	1.9	1.4688386279158
31	837	2	1.4688386279158
31	838	2.1	3.1639528581407
31	839	2.2	3.1639528581407
31	840	2.3	3.1639528581407
31	841	2.4	3.1639528581407
31	893	2.5	3.1639528581407
31	945	2.6	3.1639528581407
31	997	2.7	3.1639528581407
31	1100	2.8	3.1639528581407
31	1101	2.9	3.1639528581407
31	1255	3	3.1639528581407
31	1256	3.1	5.006992847193
31	1257	3.2	5.006992847193
31	1258	3.3	5.006992847193
31	1259	3.4	5.006992847193
31	1311	3.5	5.006992847193
31	1363	3.6	5.006992847193
31	1415	3.7	5.006992847193
31	1518	3.8	5.006992847193
31	1519	3.9	5.006992847193
31	1673	4	5.006992847193
31	1674	4.1	7.0437691081548
31	1675	4.2	7.0437691081548
31	1676	4.3	7.0437691081548
31	1677	4.4	7.0437691081548
31	1729	4.5	7.0437691081548
31	1781	4.6	7.0437691081548
31	1833	4.7	7.0437691081548
31	1936	4.8	7.0437691081548
31	1937	4.9	7.0437691081548
31	2091	5	7.0437691081548
31	2092	5.1	9.2812784774229
31	2093	5.2	9.2812784774229
31	2094	5.3	9.2812784774229
31	2095	5.4	9.2812784774229
31	2147	5.5	9.2812784774229
31	2199	5.6	9.2812784774229
31	2251	5.7	9.2812784774229
31	2354	5.8	9.2812784774229
31	2355	5.9	9.2812784774229
31	2509	6	9.2812784774229
31	2510	6.1	10.489558737228
31	2511	6.2	10.489558737228
31	2512	6.3	10.489558737228
31	2513	6.4	10.489558737228
31	2565	6.5	10.489558737228
31	2617	6.6	10.489558737228
31	2669	6.7	10.489558737228
31	2772	6.8	10.489558737228
31	2773	6.9	10.489558737228
31	2927	7	10.489558737228
31	2928	7.1	10.383679634417
31	2929	7.2	10.383679634417
31	2930	7.3	10.383679634417
31	2931	7.4	10.383679634417
31	2983	7.5	10.383679634417
31	3035	7.6	10.383679634417
31	3087	7.7	10.383679634417
31	3190	7.8	10.383679634417
31	3191	7.9	10.383679634417
31	3345	8	10.383679634417
31	3346	8.1	10.529231334236
31	3347	8.2	10.529231334236
31	3348	8.3	10.529231334236
31	3349	8.4	10.529231334236
31	3401	8.5	10.529231334236
31	3453	8.6	10.529231334236
31	3505	8.7	10.529231334236
31	3608	8.8	10.529231334236
31	3609	8.9	10.529231334236
31	3763	9	10.529231334236
31	3764	9.1	10.064592402094
31	3765	9.2	10.064592402094
31	3766	9.3	10.064592402094
31	3767	9.4	10.064592402094
31	3768	9.5	10.064592402094
31	3814	9.6	10.064592402094
31	3860	9.7	10.064592402094
31	3951	9.8	10.064592402094
31	3952	9.9	10.064592402094
31	4088	10	10.064592402094
31	4089	10.1	9.9929882791042
31	4090	10.2	9.9929882791042
31	4091	10.3	9.9929882791042
31	4092	10.4	9.9929882791042
31	4093	10.5	9.9929882791042
31	4139	10.6	9.9929882791042
31	4185	10.7	9.9929882791042
31	4276	10.8	9.9929882791042
31	4277	10.9	9.9929882791042
31	4413	11	9.9929882791042
22	2	0.1	109.9
22	3	0.2	109.9
22	4	0.3	109.9
22	5	0.4	109.9
22	57	0.5	109.9
22	109	0.6	109.9
22	161	0.7	109.9
22	264	0.8	109.9
22	265	0.9	109.9
22	419	1	109.9
22	420	1.1	109.9
22	421	1.2	108.43116137208
22	422	1.3	108.43116137208
22	423	1.4	108.43116137208
22	475	1.5	108.43116137208
22	527	1.6	108.43116137208
22	579	1.7	108.43116137208
22	682	1.8	108.43116137208
22	683	1.9	108.43116137208
22	837	2	108.43116137208
22	838	2.1	108.43116137208
22	839	2.2	105.26720851394
22	840	2.3	105.26720851394
22	841	2.4	105.26720851394
22	893	2.5	105.26720851394
22	945	2.6	105.26720851394
22	997	2.7	105.26720851394
22	1100	2.8	105.26720851394
22	1101	2.9	105.26720851394
22	1255	3	105.26720851394
22	1256	3.1	105.26720851394
22	1257	3.2	100.26021566675
22	1258	3.3	100.26021566675
22	1259	3.4	100.26021566675
[...]
206	14399	118.6	13.671943531787
206	14400	118.7	13.671943531787
206	14401	118.8	13.671943531787
206	14402	118.9	13.671943531787
206	14403	119	13.671943531787
206	14404	119.1	13.325916614752
206	14405	119.2	13.325916614752
206	14460	119.3	13.325916614752
206	14461	119.4	13.325916614752
206	14516	119.5	13.325916614752
206	14517	119.6	13.325916614752
206	14518	119.7	13.325916614752
206	14519	119.8	13.325916614752
206	14520	119.9	13.325916614752
206	14521	120	13.325916614752
199	13460	111.1	30.1
199	13461	111.2	30.1
199	13516	111.3	30.1
199	13517	111.4	30.1
199	13572	111.5	30.1
199	13573	111.6	30.1
199	13574	111.7	30.1
199	13575	111.8	30.1
199	13576	111.9	30.1
199	13577	112	30.1
199	13578	112.1	30.1
199	13579	112.2	31.596280743298
199	13634	112.3	31.596280743298
199	13635	112.4	31.596280743298
199	13690	112.5	31.596280743298
199	13691	112.6	31.596280743298
199	13692	112.7	31.596280743298
199	13693	112.8	31.596280743298
199	13694	112.9	31.596280743298
199	13695	113	31.596280743298
199	13696	113.1	31.596280743298
199	13697	113.2	34.978825825313
199	13752	113.3	34.978825825313
199	13753	113.4	34.978825825313
199	13808	113.5	34.978825825313
199	13809	113.6	34.978825825313
199	13810	113.7	34.978825825313
199	13811	113.8	34.978825825313
199	13812	113.9	34.978825825313
199	13813	114	34.978825825313
199	13814	114.1	34.978825825313
199	13815	114.2	40.254136685748
199	13870	114.3	40.254136685748
199	13871	114.4	40.254136685748
199	13926	114.5	40.254136685748
199	13927	114.6	40.254136685748
199	13928	114.7	40.254136685748
199	13929	114.8	40.254136685748
199	13930	114.9	40.254136685748
199	13931	115	40.254136685748
199	13932	115.1	40.254136685748
199	13933	115.2	47.420219599153
199	13988	115.3	47.420219599153
199	13989	115.4	47.420219599153
199	14044	115.5	47.420219599153
199	14045	115.6	47.420219599153
199	14046	115.7	47.420219599153
199	14047	115.8	47.420219599153
199	14048	115.9	47.420219599153
199	14049	116	47.420219599153
199	14050	116.1	47.420219599153
199	14051	116.2	57.118996664812
199	14106	116.3	57.118996664812
199	14107	116.4	57.118996664812
199	14162	116.5	57.118996664812
199	14163	116.6	57.118996664812
199	14164	116.7	57.118996664812
199	14165	116.8	57.118996664812
199	14166	116.9	57.118996664812
199	14167	117	57.118996664812
199	14168	117.1	57.118996664812
199	14169	117.2	69.113474838994
199	14224	117.3	69.113474838994
199	14225	117.4	69.113474838994
199	14280	117.5	69.113474838994
199	14281	117.6	69.113474838994
199	14282	117.7	69.113474838994
199	14283	117.8	69.113474838994
199	14284	117.9	69.113474838994
199	14285	118	69.113474838994
199	14286	118.1	69.113474838994
199	14287	118.2	82.785418370782
199	14342	118.3	82.785418370782
199	14343	118.4	82.785418370782
199	14398	118.5	82.785418370782
199	14399	118.6	82.785418370782
199	14400	118.7	82.785418370782
199	14401	118.8	82.785418370782
199	14402	118.9	82.785418370782
199	14403	119	82.785418370782
199	14404	119.1	82.785418370782
199	14405	119.2	96.111334985534
199	14460	119.3	96.111334985534
199	14461	119.4	96.111334985534
199	14516	119.5	96.111334985534
199	14517	119.6	96.111334985534
199	14518	119.7	96.111334985534
199	14519	119.8	96.111334985534
199	14520	119.9	96.111334985534
199	14521	120	96.111334985534
198	13460	111.1	68.4
198	13461	111.2	68.4
198	13516	111.3	68.4
198	13517	111.4	68.4
198	13572	111.5	68.4
198	13573	111.6	68.4
198	13574	111.7	68.4
198	13575	111.8	68.4
198	13576	111.9	68.4
198	13577	112	68.4
198	13578	112.1	68.4
198	13579	112.2	68.4
198	13634	112.3	68.4
198	13635	112.4	68.4
198	13690	112.5	68.4
198	13691	112.6	68.4
198	13692	112.7	68.4
198	13693	112.8	68.4
198	13694	112.9	68.4
198	13695	113	68.4
198	13696	113.1	68.4
198	13697	113.2	68.4
198	13752	113.3	68.4
198	13753	113.4	68.4
198	13808	113.5	68.4
198	13809	113.6	68.4
198	13810	113.7	68.4
198	13811	113.8	68.4
198	13812	113.9	68.4
198	13813	114	68.4
198	13814	114.1	68.4
198	13815	114.2	68.4
198	13870	114.3	68.4
198	13871	114.4	68.4
198	13926	114.5	68.4
198	13927	114.6	68.4
198	13928	114.7	68.4
198	13929	114.8	68.4
198	13930	114.9	68.4
198	13931	115	68.4
198	13932	115.1	68.4
198	13933	115.2	68.4
198	13988	115.3	68.4
198	13989	115.4	68.4
198	14044	115.5	68.4
198	14045	115.6	68.4
198	14046	115.7	68.4
198	14047	115.8	68.4
198	14048	115.9	68.4
198	14049	116	68.4
198	14050	116.1	68.4
198	14051	116.2	68.4
198	14106	116.3	68.4
198	14107	116.4	68.4
198	14162	116.5	68.4
198	14163	116.6	68.4
198	14164	116.7	68.4
198	14165	116.8	68.4
198	14166	116.9	68.4
198	14167	117	68.4
198	14168	117.1	68.4
198	14169	117.2	68.4
198	14224	117.3	68.4
198	14225	117.4	68.4
198	14280	117.5	68.4
198	14281	117.6	68.4
198	14282	117.7	68.4
198	14283	117.8	68.4
198	14284	117.9	68.4
198	14285	118	68.4
198	14286	118.1	68.4
198	14287	118.2	68.4
198	14342	118.3	68.4
198	14343	118.4	68.4
198	14398	118.5	68.4
198	14399	118.6	68.4
198	14400	118.7	68.4
198	14401	118.8	68.4
198	14402	118.9	68.4
198	14403	119	68.4
198	14404	119.1	68.4
198	14405	119.2	68.4
198	14460	119.3	68.4
198	14461	119.4	68.4
198	14516	119.5	68.4
198	14517	119.6	68.4
198	14518	119.7	68.4
198	14519	119.8	68.4
198	14520	119.9	68.4
198	14521	120	68.4
203	13460	111.1	1.0159970873492e+19
203	13461	111.2	1.0159970873492e+19
203	13516	111.3	1.0159970873492e+19
203	13517	111.4	1.0159970873492e+19
203	13572	111.5	1.0159970873492e+19
203	13573	111.6	1.0159970873492e+19
203	13574	111.7	1.0159970873492e+19
203	13575	111.8	1.0159970873492e+19
203	13576	111.9	1.0159970873492e+19
203	13577	112	1.0159970873492e+19
203	13578	112.1	1.0159970873492e+19
203	13579	112.2	1.0159970873492e+19
203	13634	112.3	1.0159970873492e+19
203	13635	112.4	1.0159970873492e+19
203	13690	112.5	1.0159970873492e+19
203	13691	112.6	1.0159970873492e+19
203	13692	112.7	1.0159970873492e+19
203	13693	112.8	1.0159970873492e+19
203	13694	112.9	1.0159970873492e+19
203	13695	113	1.0159970873492e+19
203	13696	113.1	1.0159970873492e+19
203	13697	113.2	1.0159970873492e+19
203	13752	113.3	1.0159970873492e+19
203	13753	113.4	1.0159970873492e+19
203	13808	113.5	1.0159970873492e+19
203	13809	113.6	1.0159970873492e+19
203	13810	113.7	1.0159970873492e+19
203	13811	113.8	1.0159970873492e+19
203	13812	113.9	1.0159970873492e+19
203	13813	114	1.0159970873492e+19
203	13814	114.1	1.0159970873492e+19
203	13815	114.2	1.0159970873492e+19
203	13870	114.3	1.0159970873492e+19
203	13871	114.4	1.0159970873492e+19
203	13926	114.5	1.0159970873492e+19
203	13927	114.6	1.0159970873492e+19
203	13928	114.7	1.0159970873492e+19
203	13929	114.8	1.0159970873492e+19
203	13930	114.9	1.0159970873492e+19
203	13931	115	1.0159970873492e+19
203	13932	115.1	1.0159970873492e+19
203	13933	115.2	1.0159970873492e+19
203	13988	115.3	1.0159970873492e+19
203	13989	115.4	1.0159970873492e+19
203	14044	115.5	1.0159970873492e+19
203	14045	115.6	1.0159970873492e+19
203	14046	115.7	1.0159970873492e+19
203	14047	115.8	1.0159970873492e+19
203	14048	115.9	1.0159970873492e+19
203	14049	116	1.0159970873492e+19
203	14050	116.1	1.0159970873492e+19
203	14051	116.2	1.0159970873492e+19
203	14106	116.3	1.0159970873492e+19
203	14107	116.4	1.0159970873492e+19
203	14162	116.5	1.0159970873492e+19
203	14163	116.6	1.0159970873492e+19
203	14164	116.7	1.0159970873492e+19
203	14165	116.8	1.0159970873492e+19
203	14166	116.9	1.0159970873492e+19
203	14167	117	1.0159970873492e+19
203	14168	117.1	1.0159970873492e+19
203	14169	117.2	1.0159970873492e+19
203	14224	117.3	1.0159970873492e+19
203	14225	117.4	1.0159970873492e+19
203	14280	117.5	1.0159970873492e+19
203	14281	117.6	1.0159970873492e+19
203	14282	117.7	1.0159970873492e+19
203	14283	117.8	1.0159970873492e+19
203	14284	117.9	1.0159970873492e+19
203	14285	118	1.0159970873492e+19
203	14286	118.1	1.0159970873492e+19
203	14287	118.2	1.0159970873492e+19
203	14342	118.3	1.0159970873492e+19
203	14343	118.4	1.0159970873492e+19
203	14398	118.5	1.0159970873492e+19
203	14399	118.6	1.0159970873492e+19
203	14400	118.7	1.0159970873492e+19
203	14401	118.8	1.0159970873492e+19
203	14402	118.9	1.0159970873492e+19
203	14403	119	1.0159970873492e+19
203	14404	119.1	1.0159970873492e+19
203	14405	119.2	1.0159970873492e+19
203	14460	119.3	1.0159970873492e+19
203	14461	119.4	1.0159970873492e+19
203	14516	119.5	1.0159970873492e+19
203	14517	119.6	1.0159970873492e+19
203	14518	119.7	1.0159970873492e+19
203	14519	119.8	1.0159970873492e+19
203	14520	119.9	1.0159970873492e+19
203	14521	120	1.0159970873492e+19
215	13516	111.3	0.973
215	13517	111.4	0.973
215	13572	111.5	0.973
215	13573	111.6	0.973
215	13574	111.7	0.973
215	13575	111.8	0.973
215	13576	111.9	0.973
215	13577	112	0.973
215	13578	112.1	5.6966066696201
215	13579	112.2	1.1763039884141
215	13634	112.3	1.1763039884141
215	13635	112.4	1.1763039884141
215	13690	112.5	1.1763039884141
215	13691	112.6	1.1763039884141
215	13692	112.7	1.1763039884141
215	13693	112.8	1.1763039884141
215	13694	112.9	1.1763039884141
215	13695	113	1.1763039884141
215	13696	113.1	23.898107712847
215	13697	113.2	1.2995616283009
215	13752	113.3	1.2995616283009
215	13753	113.4	1.2995616283009
215	13808	113.5	1.2995616283009
215	13809	113.6	1.2995616283009
215	13810	113.7	1.2995616283009
215	13811	113.8	1.2995616283009
215	13812	113.9	1.2995616283009
215	13813	114	1.2995616283009
215	13814	114.1	41.158764597291
215	13815	114.2	1.4428476832744
215	13870	114.3	1.4428476832744
215	13871	114.4	1.4428476832744
215	13926	114.5	1.4428476832744
215	13927	114.6	1.4428476832744
215	13928	114.7	1.4428476832744
215	13929	114.8	1.4428476832744
215	13930	114.9	1.4428476832744
215	13931	115	1.4428476832744
215	13932	115.1	42.524127114032
215	13933	115.2	1.5711292850809
215	13988	115.3	1.5711292850809
215	13989	115.4	1.5711292850809
215	14044	115.5	1.5711292850809
215	14045	115.6	1.5711292850809
215	14046	115.7	1.5711292850809
215	14047	115.8	1.5711292850809
215	14048	115.9	1.5711292850809
215	14049	116	1.5711292850809
215	14050	116.1	49.201608429177
215	14051	116.2	1.7098046868414
215	14106	116.3	1.7098046868414
215	14107	116.4	1.7098046868414
215	14162	116.5	1.7098046868414
215	14163	116.6	1.7098046868414
215	14164	116.7	1.7098046868414
215	14165	116.8	1.7098046868414
215	14166	116.9	1.7098046868414
215	14167	117	1.7098046868414
215	14168	117.1	63.153867757198
215	14169	117.2	1.882429832273
215	14224	117.3	1.882429832273
215	14225	117.4	1.882429832273
215	14280	117.5	1.882429832273
215	14281	117.6	1.882429832273
215	14282	117.7	1.882429832273
215	14283	117.8	1.882429832273
215	14284	117.9	1.882429832273
215	14285	118	1.882429832273
215	14286	118.1	90.240878006376
215	14287	118.2	2.1280720199272
215	14342	118.3	2.1280720199272
215	14343	118.4	2.1280720199272
215	14398	118.5	2.1280720199272
215	14399	118.6	2.1280720199272
215	14400	118.7	2.1280720199272
215	14401	118.8	2.1280720199272
215	14402	118.9	2.1280720199272
215	14403	119	2.1280720199272
215	14404	119.1	0.973
215	14405	119.2	2.0964544170059
215	14460	119.3	2.0964544170059
215	14461	119.4	2.0964544170059
215	14516	119.5	2.0964544170059
215	14517	119.6	2.0964544170059
215	14518	119.7	2.0964544170059
215	14519	119.8	2.0964544170059
215	14520	119.9	2.0964544170059
215	14521	120	2.0964544170059
214	13516	111.3	0
214	13517	111.4	0
214	13572	111.5	0
214	13573	111.6	0
214	13574	111.7	0
214	13575	111.8	0
214	13576	111.9	0
214	13577	112	0
214	13578	112.1	13.695416262606
214	13579	112.2	0
214	13634	112.3	0
214	13635	112.4	0
214	13690	112.5	0
214	13691	112.6	0
214	13692	112.7	0
214	13693	112.8	0
214	13694	112.9	0
214	13695	113	0
214	13696	113.1	24.530470820144
214	13697	113.2	0
214	13752	113.3	0
214	13753	113.4	0
214	13808	113.5	0
214	13809	113.6	0
214	13810	113.7	0
214	13811	113.8	0
214	13812	113.9	0
214	13813	114	0
214	13814	114.1	25.756511193933
214	13815	114.2	0
214	13870	114.3	0
214	13871	114.4	0
214	13926	114.5	0
214	13927	114.6	0
214	13928	114.7	0
214	13929	114.8	0
214	13930	114.9	0
214	13931	115	0
214	13932	115.1	20.188599040965
214	13933	115.2	0
214	13988	115.3	0
214	13989	115.4	0
214	14044	115.5	0
214	14045	115.6	0
214	14046	115.7	0
214	14047	115.8	0
214	14048	115.9	0
214	14049	116	0
214	14050	116.1	19.084783836268
214	14051	116.2	0
214	14106	116.3	0
214	14107	116.4	0
214	14162	116.5	0
214	14163	116.6	0
214	14164	116.7	0
214	14165	116.8	0
214	14166	116.9	0
214	14167	117	0
214	14168	117.1	20.53735314752
214	14169	117.2	0
214	14224	117.3	0
214	14225	117.4	0
214	14280	117.5	0
214	14281	117.6	0
214	14282	117.7	0
214	14283	117.8	0
214	14284	117.9	0
214	14285	118	0
214	14286	118.1	24.632722997339
214	14287	118.2	0
214	14342	118.3	0
214	14343	118.4	0
214	14398	118.5	0
214	14399	118.6	0
214	14400	118.7	0
214	14401	118.8	0
214	14402	118.9	0
214	14403	119	0
214	14404	119.1	-2.9248847799534
214	14405	119.2	0
214	14460	119.3	0
214	14461	119.4	0
214	14516	119.5	0
214	14517	119.6	0
214	14518	119.7	0
214	14519	119.8	0
214	14520	119.9	0
214	14521	120	0
207	13461	111.2	0
207	13516	111.3	0
207	13517	111.4	0
207	13572	111.5	0
207	13573	111.6	0
207	13574	111.7	0
207	13575	111.8	0
207	13576	111.9	0
207	13577	112	0
207	13578	112.1	1.3695416262606
207	13579	112.2	1.3695416262606
207	13634	112.3	1.3695416262606
207	13635	112.4	1.3695416262606
207	13690	112.5	1.3695416262606
207	13691	112.6	1.3695416262606
207	13692	112.7	1.3695416262606
207	13693	112.8	1.3695416262606
207	13694	112.9	1.3695416262606
207	13695	113	1.3695416262606
207	13696	113.1	3.822588708275
207	13697	113.2	3.822588708275
207	13752	113.3	3.822588708275
207	13753	113.4	3.822588708275
207	13808	113.5	3.822588708275
207	13809	113.6	3.822588708275
207	13810	113.7	3.822588708275
207	13811	113.8	3.822588708275
207	13812	113.9	3.822588708275
207	13813	114	3.822588708275
207	13814	114.1	6.3982398276683
207	13815	114.2	6.3982398276683
207	13870	114.3	6.3982398276683
207	13871	114.4	6.3982398276683
207	13926	114.5	6.3982398276683
207	13927	114.6	6.3982398276683
207	13928	114.7	6.3982398276683
207	13929	114.8	6.3982398276683
207	13930	114.9	6.3982398276683
207	13931	115	6.3982398276683
207	13932	115.1	8.4170997317648
207	13933	115.2	8.4170997317648
207	13988	115.3	8.4170997317648
207	13989	115.4	8.4170997317648
207	14044	115.5	8.4170997317648
207	14045	115.6	8.4170997317648
207	14046	115.7	8.4170997317648
207	14047	115.8	8.4170997317648
207	14048	115.9	8.4170997317648
207	14049	116	8.4170997317648
207	14050	116.1	10.325578115392
207	14051	116.2	10.325578115392
207	14106	116.3	10.325578115392
207	14107	116.4	10.325578115392
207	14162	116.5	10.325578115392
207	14163	116.6	10.325578115392
207	14164	116.7	10.325578115392
207	14165	116.8	10.325578115392
207	14166	116.9	10.325578115392
207	14167	117	10.325578115392
207	14168	117.1	12.379313430144
207	14169	117.2	12.379313430144
207	14224	117.3	12.379313430144
207	14225	117.4	12.379313430144
207	14280	117.5	12.379313430144
207	14281	117.6	12.379313430144
207	14282	117.7	12.379313430144
207	14283	117.8	12.379313430144
207	14284	117.9	12.379313430144
207	14285	118	12.379313430144
207	14286	118.1	14.842585729877
207	14287	118.2	14.842585729877
207	14342	118.3	14.842585729877
207	14343	118.4	14.842585729877
207	14398	118.5	14.842585729877
207	14399	118.6	14.842585729877
207	14400	118.7	14.842585729877
207	14401	118.8	14.842585729877
207	14402	118.9	14.842585729877
207	14403	119	14.842585729877
207	14404	119.1	14.550097251882
207	14405	119.2	14.550097251882
207	14460	119.3	14.550097251882
207	14461	119.4	14.550097251882
207	14516	119.5	14.550097251882
207	14517	119.6	14.550097251882
207	14518	119.7	14.550097251882
207	14519	119.8	14.550097251882
207	14520	119.9	14.550097251882
207	14521	120	14.550097251882
202	13460	111.1	109.9
202	13461	111.2	109.9
202	13516	111.3	109.9
202	13517	111.4	109.9
202	13572	111.5	109.9
202	13573	111.6	109.9
202	13574	111.7	109.9
202	13575	111.8	109.9
202	13576	111.9	109.9
202	13577	112	109.9
202	13578	112.1	109.9
202	13579	112.2	108.53045837374
202	13634	112.3	108.53045837374
202	13635	112.4	108.53045837374
202	13690	112.5	108.53045837374
202	13691	112.6	108.53045837374
202	13692	112.7	108.53045837374
202	13693	112.8	108.53045837374
202	13694	112.9	108.53045837374
202	13695	113	108.53045837374
202	13696	113.1	108.53045837374
202	13697	113.2	104.70786966546
202	13752	113.3	104.70786966546
202	13753	113.4	104.70786966546
202	13808	113.5	104.70786966546
202	13809	113.6	104.70786966546
202	13810	113.7	104.70786966546
202	13811	113.8	104.70786966546
202	13812	113.9	104.70786966546
202	13813	114	104.70786966546
202	13814	114.1	104.70786966546
202	13815	114.2	98.309629837796
202	13870	114.3	98.309629837796
202	13871	114.4	98.309629837796
202	13926	114.5	98.309629837796
202	13927	114.6	98.309629837796
202	13928	114.7	98.309629837796
202	13929	114.8	98.309629837796
202	13930	114.9	98.309629837796
202	13931	115	98.309629837796
202	13932	115.1	98.309629837796
202	13933	115.2	89.892530106031
202	13988	115.3	89.892530106031
202	13989	115.4	89.892530106031
202	14044	115.5	89.892530106031
202	14045	115.6	89.892530106031
202	14046	115.7	89.892530106031
202	14047	115.8	89.892530106031
202	14048	115.9	89.892530106031
202	14049	116	89.892530106031
202	14050	116.1	89.892530106031
202	14051	116.2	79.56695199064
202	14106	116.3	79.56695199064
202	14107	116.4	79.56695199064
202	14162	116.5	79.56695199064
202	14163	116.6	79.56695199064
202	14164	116.7	79.56695199064
202	14165	116.8	79.56695199064
202	14166	116.9	79.56695199064
202	14167	117	79.56695199064
202	14168	117.1	79.56695199064
202	14169	117.2	67.187638560496
202	14224	117.3	67.187638560496
202	14225	117.4	67.187638560496
202	14280	117.5	67.187638560496
202	14281	117.6	67.187638560496
202	14282	117.7	67.187638560496
202	14283	117.8	67.187638560496
202	14284	117.9	67.187638560496
202	14285	118	67.187638560496
202	14286	118.1	67.187638560496
202	14287	118.2	52.345052830619
202	14342	118.3	52.345052830619
202	14343	118.4	52.345052830619
202	14398	118.5	52.345052830619
202	14399	118.6	52.345052830619
202	14400	118.7	52.345052830619
202	14401	118.8	52.345052830619
202	14402	118.9	52.345052830619
202	14403	119	52.345052830619
202	14404	119.1	52.345052830619
202	14405	119.2	37.794955578737
202	14460	119.3	37.794955578737
202	14461	119.4	37.794955578737
202	14516	119.5	37.794955578737
202	14517	119.6	37.794955578737
202	14518	119.7	37.794955578737
202	14519	119.8	37.794955578737
202	14520	119.9	37.794955578737
202	14521	120	37.794955578737
201	13460	111.1	71.6
201	13461	111.2	71.6
201	13516	111.3	71.6
201	13517	111.4	71.6
201	13572	111.5	71.6
201	13573	111.6	71.6
201	13574	111.7	71.6
201	13575	111.8	71.6
201	13576	111.9	71.6
201	13577	112	71.6
201	13578	112.1	71.6
201	13579	112.2	71.6
201	13634	112.3	71.6
201	13635	112.4	71.6
201	13690	112.5	71.6
201	13691	112.6	71.6
201	13692	112.7	71.6
201	13693	112.8	71.6
201	13694	112.9	71.6
201	13695	113	71.6
201	13696	113.1	71.6
201	13697	113.2	71.6
201	13752	113.3	71.6
201	13753	113.4	71.6
201	13808	113.5	71.6
201	13809	113.6	71.6
201	13810	113.7	71.6
201	13811	113.8	71.6
201	13812	113.9	71.6
201	13813	114	71.6
201	13814	114.1	71.6
201	13815	114.2	71.6
201	13870	114.3	71.6
201	13871	114.4	71.6
201	13926	114.5	71.6
201	13927	114.6	71.6
201	13928	114.7	71.6
201	13929	114.8	71.6
201	13930	114.9	71.6
201	13931	115	71.6
201	13932	115.1	71.6
201	13933	115.2	71.6
201	13988	115.3	71.6
201	13989	115.4	71.6
201	14044	115.5	71.6
201	14045	115.6	71.6
201	14046	115.7	71.6
201	14047	115.8	71.6
201	14048	115.9	71.6
201	14049	116	71.6
201	14050	116.1	71.6
201	14051	116.2	71.6
201	14106	116.3	71.6
201	14107	116.4	71.6
201	14162	116.5	71.6
201	14163	116.6	71.6
201	14164	116.7	71.6
201	14165	116.8	71.6
201	14166	116.9	71.6
201	14167	117	71.6
201	14168	117.1	71.6
201	14169	117.2	71.6
201	14224	117.3	71.6
201	14225	117.4	71.6
201	14280	117.5	71.6
201	14281	117.6	71.6
201	14282	117.7	71.6
201	14283	117.8	71.6
201	14284	117.9	71.6
201	14285	118	71.6
201	14286	118.1	71.6
201	14287	118.2	71.6
201	14342	118.3	71.6
201	14343	118.4	71.6
201	14398	118.5	71.6
201	14399	118.6	71.6
201	14400	118.7	71.6
201	14401	118.8	71.6
201	14402	118.9	71.6
201	14403	119	71.6
201	14404	119.1	71.6
201	14405	119.2	71.6
201	14460	119.3	71.6
201	14461	119.4	71.6
201	14516	119.5	71.6
201	14517	119.6	71.6
201	14518	119.7	71.6
201	14519	119.8	71.6
201	14520	119.9	71.6
201	14521	120	71.6

